PPY.sdf


 27 29  0  0  0  0  0  0  0  0999 V2000
  -25.0438   43.2384   26.3799 O   0  0  0  0  0
  -26.2348   41.3831   26.0497 O   0  0  0  0  0
  -31.3375   40.6838   29.0991 O   0  0  0  0  0
  -23.4821   40.1370   29.9964 O   0  0  0  0  0
  -21.8711   41.2597   26.4931 O   0  0  0  0  0
  -25.4155   42.1508   26.7967 C   0  0  0  0  0
  -25.0423   41.5145   28.1336 C   0  0  0  0  0
  -25.8691   42.1588   29.2566 C   0  0  0  0  0
  -27.3273   41.7646   29.2279 C   0  0  0  0  0
  -27.7208   40.4895   29.6607 C   0  0  0  0  0
  -29.0645   40.1116   29.6237 C   0  0  0  0  0
  -30.0148   41.0116   29.1533 C   0  0  0  0  0
  -29.6434   42.2792   28.7219 C   0  0  0  0  0
  -28.3006   42.6574   28.7584 C   0  0  0  0  0
  -22.9167   40.9297   29.2436 C   0  0  0  0  0
  -21.3836   41.1128   29.2610 C   0  0  0  0  0
  -20.8660   42.5367   29.3898 C   0  0  0  0  0
  -19.3523   42.3524   29.2257 C   0  0  0  0  0
  -19.1723   40.9942   28.5261 C   0  0  0  0  0
  -20.9081   40.5923   26.8735 C   0  0  0  0  0
  -20.0163   39.8074   25.8819 C   0  0  0  0  0
  -20.6789   39.5606   24.5243 C   0  0  0  0  0
  -20.4103   38.0941   24.2042 C   0  0  0  0  0
  -19.3610   37.6693   25.2109 C   0  0  0  0  0
  -23.6056   41.7142   28.3490 N   0  0  0  0  0
  -20.5228   40.5404   28.2209 N   0  0  0  0  0
  -19.7163   38.4523   26.3861 N   0  0  0  0  0
  6  2  1  0  0  0
  7  6  1  0  0  0
  7  8  1  0  0  0
  7 25  1  0  0  0
  8  9  1  0  0  0
  9 14  1  0  0  0
 10 11  1  0  0  0
 12  3  1  0  0  0
 12 13  1  0  0  0
 16 15  1  0  0  0
 16 17  1  0  0  0
 16 26  1  0  0  0
 17 18  1  0  0  0
 18 19  1  0  0  0
 19 26  1  0  0  0
 21 20  1  0  0  0
 21 22  1  0  0  0
 21 27  1  0  0  0
 22 23  1  0  0  0
 23 24  1  0  0  0
 24 27  1  0  0  0
 25 15  1  0  0  0
 26 20  1  0  0  0
  6  1  2  0  0  0
  9 10  2  0  0  0
 11 12  2  0  0  0
 13 14  2  0  0  0
 15  4  2  0  0  0
 20  5  2  0  0  0
M  END
> <rmsd>
0.784391284

$$$$
PPY.sdf


 27 29  0  0  0  0  0  0  0  0999 V2000
  -25.0438   43.2384   26.3799 O   0  0  0  0  0
  -26.2348   41.3831   26.0497 O   0  0  0  0  0
  -31.3375   40.6838   29.0991 O   0  0  0  0  0
  -23.4821   40.1370   29.9964 O   0  0  0  0  0
  -21.8711   41.2597   26.4931 O   0  0  0  0  0
  -25.4155   42.1508   26.7967 C   0  0  0  0  0
  -25.0423   41.5145   28.1336 C   0  0  0  0  0
  -25.8691   42.1588   29.2566 C   0  0  0  0  0
  -27.3273   41.7646   29.2279 C   0  0  0  0  0
  -27.7208   40.4895   29.6607 C   0  0  0  0  0
  -29.0645   40.1116   29.6237 C   0  0  0  0  0
  -30.0148   41.0116   29.1533 C   0  0  0  0  0
  -29.6434   42.2792   28.7219 C   0  0  0  0  0
  -28.3006   42.6574   28.7584 C   0  0  0  0  0
  -22.9167   40.9297   29.2436 C   0  0  0  0  0
  -21.3836   41.1128   29.2610 C   0  0  0  0  0
  -20.8660   42.5367   29.3898 C   0  0  0  0  0
  -19.3523   42.3524   29.2257 C   0  0  0  0  0
  -19.1723   40.9942   28.5261 C   0  0  0  0  0
  -20.9081   40.5923   26.8735 C   0  0  0  0  0
  -20.0163   39.8074   25.8819 C   0  0  0  0  0
  -20.6789   39.5606   24.5243 C   0  0  0  0  0
  -20.4103   38.0941   24.2042 C   0  0  0  0  0
  -19.3610   37.6693   25.2109 C   0  0  0  0  0
  -23.6056   41.7142   28.3490 N   0  0  0  0  0
  -20.5228   40.5404   28.2209 N   0  0  0  0  0
  -19.7163   38.4523   26.3861 N   0  0  0  0  0
  6  2  1  0  0  0
  7  6  1  0  0  0
  7  8  1  0  0  0
  7 25  1  0  0  0
  8  9  1  0  0  0
  9 14  1  0  0  0
 10 11  1  0  0  0
 12  3  1  0  0  0
 12 13  1  0  0  0
 16 15  1  0  0  0
 16 17  1  0  0  0
 16 26  1  0  0  0
 17 18  1  0  0  0
 18 19  1  0  0  0
 19 26  1  0  0  0
 21 20  1  0  0  0
 21 22  1  0  0  0
 21 27  1  0  0  0
 22 23  1  0  0  0
 23 24  1  0  0  0
 24 27  1  0  0  0
 25 15  1  0  0  0
 26 20  1  0  0  0
  6  1  2  0  0  0
  9 10  2  0  0  0
 11 12  2  0  0  0
 13 14  2  0  0  0
 15  4  2  0  0  0
 20  5  2  0  0  0
M  END
> <rmsd>
0.784391284

$$$$
PPY.sdf


 27 29  0  0  0  0  0  0  0  0999 V2000
  -25.0438   43.2384   26.3799 O   0  0  0  0  0
  -26.2348   41.3831   26.0497 O   0  0  0  0  0
  -31.3375   40.6838   29.0991 O   0  0  0  0  0
  -23.4821   40.1370   29.9964 O   0  0  0  0  0
  -21.8711   41.2597   26.4931 O   0  0  0  0  0
  -25.4155   42.1508   26.7967 C   0  0  0  0  0
  -25.0423   41.5145   28.1336 C   0  0  0  0  0
  -25.8691   42.1588   29.2566 C   0  0  0  0  0
  -27.3273   41.7646   29.2279 C   0  0  0  0  0
  -27.7208   40.4895   29.6607 C   0  0  0  0  0
  -29.0645   40.1116   29.6237 C   0  0  0  0  0
  -30.0148   41.0116   29.1533 C   0  0  0  0  0
  -29.6434   42.2792   28.7219 C   0  0  0  0  0
  -28.3006   42.6574   28.7584 C   0  0  0  0  0
  -22.9167   40.9297   29.2436 C   0  0  0  0  0
  -21.3836   41.1128   29.2610 C   0  0  0  0  0
  -20.8660   42.5367   29.3898 C   0  0  0  0  0
  -19.3523   42.3524   29.2257 C   0  0  0  0  0
  -19.1723   40.9942   28.5261 C   0  0  0  0  0
  -20.9081   40.5923   26.8735 C   0  0  0  0  0
  -20.0163   39.8074   25.8819 C   0  0  0  0  0
  -20.6789   39.5606   24.5243 C   0  0  0  0  0
  -20.4103   38.0941   24.2042 C   0  0  0  0  0
  -19.3610   37.6693   25.2109 C   0  0  0  0  0
  -23.6056   41.7142   28.3490 N   0  0  0  0  0
  -20.5228   40.5404   28.2209 N   0  0  0  0  0
  -19.7163   38.4523   26.3861 N   0  0  0  0  0
  6  2  1  0  0  0
  7  6  1  0  0  0
  7  8  1  0  0  0
  7 25  1  0  0  0
  8  9  1  0  0  0
  9 14  1  0  0  0
 10 11  1  0  0  0
 12  3  1  0  0  0
 12 13  1  0  0  0
 16 15  1  0  0  0
 16 17  1  0  0  0
 16 26  1  0  0  0
 17 18  1  0  0  0
 18 19  1  0  0  0
 19 26  1  0  0  0
 21 20  1  0  0  0
 21 22  1  0  0  0
 21 27  1  0  0  0
 22 23  1  0  0  0
 23 24  1  0  0  0
 24 27  1  0  0  0
 25 15  1  0  0  0
 26 20  1  0  0  0
  6  1  2  0  0  0
  9 10  2  0  0  0
 11 12  2  0  0  0
 13 14  2  0  0  0
 15  4  2  0  0  0
 20  5  2  0  0  0
M  END
> <rmsd>
0.784391284

$$$$
PPY.sdf


 27 29  0  0  0  0  0  0  0  0999 V2000
  -25.0438   43.2384   26.3799 O   0  0  0  0  0
  -26.2348   41.3831   26.0497 O   0  0  0  0  0
  -31.3375   40.6838   29.0991 O   0  0  0  0  0
  -23.4821   40.1370   29.9964 O   0  0  0  0  0
  -21.8711   41.2597   26.4931 O   0  0  0  0  0
  -25.4155   42.1508   26.7967 C   0  0  0  0  0
  -25.0423   41.5145   28.1336 C   0  0  0  0  0
  -25.8691   42.1588   29.2566 C   0  0  0  0  0
  -27.3273   41.7646   29.2279 C   0  0  0  0  0
  -27.7208   40.4895   29.6607 C   0  0  0  0  0
  -29.0645   40.1116   29.6237 C   0  0  0  0  0
  -30.0148   41.0116   29.1533 C   0  0  0  0  0
  -29.6434   42.2792   28.7219 C   0  0  0  0  0
  -28.3006   42.6574   28.7584 C   0  0  0  0  0
  -22.9167   40.9297   29.2436 C   0  0  0  0  0
  -21.3836   41.1128   29.2610 C   0  0  0  0  0
  -20.8660   42.5367   29.3898 C   0  0  0  0  0
  -19.3523   42.3524   29.2257 C   0  0  0  0  0
  -19.1723   40.9942   28.5261 C   0  0  0  0  0
  -20.9081   40.5923   26.8735 C   0  0  0  0  0
  -20.0163   39.8074   25.8819 C   0  0  0  0  0
  -20.6789   39.5606   24.5243 C   0  0  0  0  0
  -20.4103   38.0941   24.2042 C   0  0  0  0  0
  -19.3610   37.6693   25.2109 C   0  0  0  0  0
  -23.6056   41.7142   28.3490 N   0  0  0  0  0
  -20.5228   40.5404   28.2209 N   0  0  0  0  0
  -19.7163   38.4523   26.3861 N   0  0  0  0  0
  6  2  1  0  0  0
  7  6  1  0  0  0
  7  8  1  0  0  0
  7 25  1  0  0  0
  8  9  1  0  0  0
  9 14  1  0  0  0
 10 11  1  0  0  0
 12  3  1  0  0  0
 12 13  1  0  0  0
 16 15  1  0  0  0
 16 17  1  0  0  0
 16 26  1  0  0  0
 17 18  1  0  0  0
 18 19  1  0  0  0
 19 26  1  0  0  0
 21 20  1  0  0  0
 21 22  1  0  0  0
 21 27  1  0  0  0
 22 23  1  0  0  0
 23 24  1  0  0  0
 24 27  1  0  0  0
 25 15  1  0  0  0
 26 20  1  0  0  0
  6  1  2  0  0  0
  9 10  2  0  0  0
 11 12  2  0  0  0
 13 14  2  0  0  0
 15  4  2  0  0  0
 20  5  2  0  0  0
M  END
> <rmsd>
0.784391284

$$$$
