PPY.sdf


 27 29  0  0  0  0  0  0  0  0999 V2000
  -23.0827   39.8186   30.0513 O   0  0  0  0  0
  -22.7219   41.6682   31.2483 O   0  0  0  0  0
  -21.1748   42.0406   36.9700 O   0  0  0  0  0
  -27.4573   40.3799   32.3044 O   0  0  0  0  0
  -27.2480   41.2910   28.4348 O   0  0  0  0  0
  -23.4344   40.5644   30.9563 C   0  0  0  0  0
  -24.6673   40.3761   31.8348 C   0  0  0  0  0
  -24.3418   39.4763   33.0330 C   0  0  0  0  0
  -23.4851   40.1461   34.0809 C   0  0  0  0  0
  -24.0369   41.1228   34.9223 C   0  0  0  0  0
  -23.2482   41.7504   35.8871 C   0  0  0  0  0
  -21.9091   41.4035   36.0138 C   0  0  0  0  0
  -21.3425   40.4364   35.1899 C   0  0  0  0  0
  -22.1316   39.8080   34.2235 C   0  0  0  0  0
  -27.0368   39.9165   31.2462 C   0  0  0  0  0
  -27.9717   39.3017   30.1877 C   0  0  0  0  0
  -28.4043   37.9055   30.6463 C   0  0  0  0  0
  -28.6057   37.1472   29.3437 C   0  0  0  0  0
  -27.4895   37.6815   28.4616 C   0  0  0  0  0
  -27.0292   40.1386   28.0550 C   0  0  0  0  0
  -26.4312   39.8229   26.6646 C   0  0  0  0  0
  -25.1798   38.9453   26.6937 C   0  0  0  0  0
  -24.2114   39.5752   25.6965 C   0  0  0  0  0
  -25.0349   40.6172   24.9669 C   0  0  0  0  0
  -25.6940   39.7627   30.9890 N   0  0  0  0  0
  -27.3326   39.0660   28.8793 N   0  0  0  0  0
  -25.9552   41.0530   26.0023 N   0  0  0  0  0
  6  2  1  0  0  0
  7  6  1  0  0  0
  7  8  1  0  0  0
  7 25  1  0  0  0
  8  9  1  0  0  0
  9 14  1  0  0  0
 10 11  1  0  0  0
 12  3  1  0  0  0
 12 13  1  0  0  0
 16 15  1  0  0  0
 16 17  1  0  0  0
 16 26  1  0  0  0
 17 18  1  0  0  0
 18 19  1  0  0  0
 19 26  1  0  0  0
 21 20  1  0  0  0
 21 22  1  0  0  0
 21 27  1  0  0  0
 22 23  1  0  0  0
 23 24  1  0  0  0
 24 27  1  0  0  0
 25 15  1  0  0  0
 26 20  1  0  0  0
  6  1  2  0  0  0
  9 10  2  0  0  0
 11 12  2  0  0  0
 13 14  2  0  0  0
 15  4  2  0  0  0
 20  5  2  0  0  0
M  END
> <rmsd>
0.803177834

$$$$
PPY.sdf


 27 29  0  0  0  0  0  0  0  0999 V2000
  -23.0827   39.8186   30.0513 O   0  0  0  0  0
  -22.7219   41.6682   31.2483 O   0  0  0  0  0
  -21.1748   42.0406   36.9700 O   0  0  0  0  0
  -27.4573   40.3799   32.3044 O   0  0  0  0  0
  -27.2480   41.2910   28.4348 O   0  0  0  0  0
  -23.4344   40.5644   30.9563 C   0  0  0  0  0
  -24.6673   40.3761   31.8348 C   0  0  0  0  0
  -24.3418   39.4763   33.0330 C   0  0  0  0  0
  -23.4851   40.1461   34.0809 C   0  0  0  0  0
  -24.0369   41.1228   34.9223 C   0  0  0  0  0
  -23.2482   41.7504   35.8871 C   0  0  0  0  0
  -21.9091   41.4035   36.0138 C   0  0  0  0  0
  -21.3425   40.4364   35.1899 C   0  0  0  0  0
  -22.1316   39.8080   34.2235 C   0  0  0  0  0
  -27.0368   39.9165   31.2462 C   0  0  0  0  0
  -27.9717   39.3017   30.1877 C   0  0  0  0  0
  -28.4043   37.9055   30.6463 C   0  0  0  0  0
  -28.6057   37.1472   29.3437 C   0  0  0  0  0
  -27.4895   37.6815   28.4616 C   0  0  0  0  0
  -27.0292   40.1386   28.0550 C   0  0  0  0  0
  -26.4312   39.8229   26.6646 C   0  0  0  0  0
  -25.1798   38.9453   26.6937 C   0  0  0  0  0
  -24.2114   39.5752   25.6965 C   0  0  0  0  0
  -25.0349   40.6172   24.9669 C   0  0  0  0  0
  -25.6940   39.7627   30.9890 N   0  0  0  0  0
  -27.3326   39.0660   28.8793 N   0  0  0  0  0
  -25.9552   41.0530   26.0023 N   0  0  0  0  0
  6  2  1  0  0  0
  7  6  1  0  0  0
  7  8  1  0  0  0
  7 25  1  0  0  0
  8  9  1  0  0  0
  9 14  1  0  0  0
 10 11  1  0  0  0
 12  3  1  0  0  0
 12 13  1  0  0  0
 16 15  1  0  0  0
 16 17  1  0  0  0
 16 26  1  0  0  0
 17 18  1  0  0  0
 18 19  1  0  0  0
 19 26  1  0  0  0
 21 20  1  0  0  0
 21 22  1  0  0  0
 21 27  1  0  0  0
 22 23  1  0  0  0
 23 24  1  0  0  0
 24 27  1  0  0  0
 25 15  1  0  0  0
 26 20  1  0  0  0
  6  1  2  0  0  0
  9 10  2  0  0  0
 11 12  2  0  0  0
 13 14  2  0  0  0
 15  4  2  0  0  0
 20  5  2  0  0  0
M  END
> <rmsd>
0.803177834

$$$$
PPY.sdf


 27 29  0  0  0  0  0  0  0  0999 V2000
  -23.0827   39.8186   30.0513 O   0  0  0  0  0
  -22.7219   41.6682   31.2483 O   0  0  0  0  0
  -21.1748   42.0406   36.9700 O   0  0  0  0  0
  -27.4573   40.3799   32.3044 O   0  0  0  0  0
  -27.2480   41.2910   28.4348 O   0  0  0  0  0
  -23.4344   40.5644   30.9563 C   0  0  0  0  0
  -24.6673   40.3761   31.8348 C   0  0  0  0  0
  -24.3418   39.4763   33.0330 C   0  0  0  0  0
  -23.4851   40.1461   34.0809 C   0  0  0  0  0
  -24.0369   41.1228   34.9223 C   0  0  0  0  0
  -23.2482   41.7504   35.8871 C   0  0  0  0  0
  -21.9091   41.4035   36.0138 C   0  0  0  0  0
  -21.3425   40.4364   35.1899 C   0  0  0  0  0
  -22.1316   39.8080   34.2235 C   0  0  0  0  0
  -27.0368   39.9165   31.2462 C   0  0  0  0  0
  -27.9717   39.3017   30.1877 C   0  0  0  0  0
  -28.4043   37.9055   30.6463 C   0  0  0  0  0
  -28.6057   37.1472   29.3437 C   0  0  0  0  0
  -27.4895   37.6815   28.4616 C   0  0  0  0  0
  -27.0292   40.1386   28.0550 C   0  0  0  0  0
  -26.4312   39.8229   26.6646 C   0  0  0  0  0
  -25.1798   38.9453   26.6937 C   0  0  0  0  0
  -24.2114   39.5752   25.6965 C   0  0  0  0  0
  -25.0349   40.6172   24.9669 C   0  0  0  0  0
  -25.6940   39.7627   30.9890 N   0  0  0  0  0
  -27.3326   39.0660   28.8793 N   0  0  0  0  0
  -25.9552   41.0530   26.0023 N   0  0  0  0  0
  6  2  1  0  0  0
  7  6  1  0  0  0
  7  8  1  0  0  0
  7 25  1  0  0  0
  8  9  1  0  0  0
  9 14  1  0  0  0
 10 11  1  0  0  0
 12  3  1  0  0  0
 12 13  1  0  0  0
 16 15  1  0  0  0
 16 17  1  0  0  0
 16 26  1  0  0  0
 17 18  1  0  0  0
 18 19  1  0  0  0
 19 26  1  0  0  0
 21 20  1  0  0  0
 21 22  1  0  0  0
 21 27  1  0  0  0
 22 23  1  0  0  0
 23 24  1  0  0  0
 24 27  1  0  0  0
 25 15  1  0  0  0
 26 20  1  0  0  0
  6  1  2  0  0  0
  9 10  2  0  0  0
 11 12  2  0  0  0
 13 14  2  0  0  0
 15  4  2  0  0  0
 20  5  2  0  0  0
M  END
> <rmsd>
0.803177834

$$$$
PPY.sdf


 27 29  0  0  0  0  0  0  0  0999 V2000
  -23.0827   39.8186   30.0513 O   0  0  0  0  0
  -22.7219   41.6682   31.2483 O   0  0  0  0  0
  -21.1748   42.0406   36.9700 O   0  0  0  0  0
  -27.4573   40.3799   32.3044 O   0  0  0  0  0
  -27.2480   41.2910   28.4348 O   0  0  0  0  0
  -23.4344   40.5644   30.9563 C   0  0  0  0  0
  -24.6673   40.3761   31.8348 C   0  0  0  0  0
  -24.3418   39.4763   33.0330 C   0  0  0  0  0
  -23.4851   40.1461   34.0809 C   0  0  0  0  0
  -24.0369   41.1228   34.9223 C   0  0  0  0  0
  -23.2482   41.7504   35.8871 C   0  0  0  0  0
  -21.9091   41.4035   36.0138 C   0  0  0  0  0
  -21.3425   40.4364   35.1899 C   0  0  0  0  0
  -22.1316   39.8080   34.2235 C   0  0  0  0  0
  -27.0368   39.9165   31.2462 C   0  0  0  0  0
  -27.9717   39.3017   30.1877 C   0  0  0  0  0
  -28.4043   37.9055   30.6463 C   0  0  0  0  0
  -28.6057   37.1472   29.3437 C   0  0  0  0  0
  -27.4895   37.6815   28.4616 C   0  0  0  0  0
  -27.0292   40.1386   28.0550 C   0  0  0  0  0
  -26.4312   39.8229   26.6646 C   0  0  0  0  0
  -25.1798   38.9453   26.6937 C   0  0  0  0  0
  -24.2114   39.5752   25.6965 C   0  0  0  0  0
  -25.0349   40.6172   24.9669 C   0  0  0  0  0
  -25.6940   39.7627   30.9890 N   0  0  0  0  0
  -27.3326   39.0660   28.8793 N   0  0  0  0  0
  -25.9552   41.0530   26.0023 N   0  0  0  0  0
  6  2  1  0  0  0
  7  6  1  0  0  0
  7  8  1  0  0  0
  7 25  1  0  0  0
  8  9  1  0  0  0
  9 14  1  0  0  0
 10 11  1  0  0  0
 12  3  1  0  0  0
 12 13  1  0  0  0
 16 15  1  0  0  0
 16 17  1  0  0  0
 16 26  1  0  0  0
 17 18  1  0  0  0
 18 19  1  0  0  0
 19 26  1  0  0  0
 21 20  1  0  0  0
 21 22  1  0  0  0
 21 27  1  0  0  0
 22 23  1  0  0  0
 23 24  1  0  0  0
 24 27  1  0  0  0
 25 15  1  0  0  0
 26 20  1  0  0  0
  6  1  2  0  0  0
  9 10  2  0  0  0
 11 12  2  0  0  0
 13 14  2  0  0  0
 15  4  2  0  0  0
 20  5  2  0  0  0
M  END
> <rmsd>
0.803177834

$$$$
