PPY.sdf


 27 29  0  0  0  0  0  0  0  0999 V2000
  -23.5252   40.4944   31.9640 O   0  0  0  0  0
  -25.0965   42.0499   31.6558 O   0  0  0  0  0
  -30.5031   40.6136   29.7067 O   0  0  0  0  0
  -22.2725   43.2093   29.0076 O   0  0  0  0  0
  -21.4510   40.5472   26.6767 O   0  0  0  0  0
  -24.1815   41.1785   31.1897 C   0  0  0  0  0
  -24.0911   41.1417   29.6667 C   0  0  0  0  0
  -24.9052   39.9661   29.1148 C   0  0  0  0  0
  -26.3986   40.1376   29.2580 C   0  0  0  0  0
  -27.1133   39.3930   30.2069 C   0  0  0  0  0
  -28.4915   39.5639   30.3445 C   0  0  0  0  0
  -29.1570   40.4774   29.5368 C   0  0  0  0  0
  -28.4671   41.2248   28.5884 C   0  0  0  0  0
  -27.0881   41.0535   28.4496 C   0  0  0  0  0
  -21.8641   42.0510   29.0329 C   0  0  0  0  0
  -20.3678   41.6975   28.9588 C   0  0  0  0  0
  -19.4575   42.7183   28.2917 C   0  0  0  0  0
  -18.1436   41.9452   28.0850 C   0  0  0  0  0
  -18.4598   40.4857   28.4432 C   0  0  0  0  0
  -20.5069   39.9652   27.2120 C   0  0  0  0  0
  -19.9649   38.6285   26.6459 C   0  0  0  0  0
  -18.9813   38.8541   25.4980 C   0  0  0  0  0
  -19.5611   38.0851   24.3236 C   0  0  0  0  0
  -21.0409   38.0410   24.6281 C   0  0  0  0  0
  -22.6766   40.9761   29.3260 N   0  0  0  0  0
  -19.9129   40.4201   28.3997 N   0  0  0  0  0
  -21.0764   37.8242   26.0755 N   0  0  0  0  0
  6  2  1  0  0  0
  7  6  1  0  0  0
  7  8  1  0  0  0
  7 25  1  0  0  0
  8  9  1  0  0  0
  9 14  1  0  0  0
 10 11  1  0  0  0
 12  3  1  0  0  0
 12 13  1  0  0  0
 16 15  1  0  0  0
 16 17  1  0  0  0
 16 26  1  0  0  0
 17 18  1  0  0  0
 18 19  1  0  0  0
 19 26  1  0  0  0
 21 20  1  0  0  0
 21 22  1  0  0  0
 21 27  1  0  0  0
 22 23  1  0  0  0
 23 24  1  0  0  0
 24 27  1  0  0  0
 25 15  1  0  0  0
 26 20  1  0  0  0
  6  1  2  0  0  0
  9 10  2  0  0  0
 11 12  2  0  0  0
 13 14  2  0  0  0
 15  4  2  0  0  0
 20  5  2  0  0  0
M  END
> <rmsd>
0.644655108

$$$$
PPY.sdf


 27 29  0  0  0  0  0  0  0  0999 V2000
  -21.3510   40.9862   27.2099 O   0  0  0  0  0
  -22.1149   42.7280   28.3725 O   0  0  0  0  0
  -29.7018   39.2741   29.1365 O   0  0  0  0  0
  -23.9782   41.9913   24.9272 O   0  0  0  0  0
  -23.6949   36.1859   24.6639 O   0  0  0  0  0
  -22.3100   41.5906   27.6696 C   0  0  0  0  0
  -23.7874   41.1931   27.5938 C   0  0  0  0  0
  -24.1781   40.5235   28.9181 C   0  0  0  0  0
  -25.6516   40.1958   29.0008 C   0  0  0  0  0
  -26.5769   41.1751   29.3895 C   0  0  0  0  0
  -27.9412   40.8795   29.4421 C   0  0  0  0  0
  -28.3791   39.6038   29.1017 C   0  0  0  0  0
  -27.4771   38.6223   28.7108 C   0  0  0  0  0
  -26.1144   38.9167   28.6588 C   0  0  0  0  0
  -24.0703   40.7894   25.1769 C   0  0  0  0  0
  -24.2788   39.7458   24.0583 C   0  0  0  0  0
  -25.5860   40.1140   23.3302 C   0  0  0  0  0
  -26.1762   38.7773   22.9134 C   0  0  0  0  0
  -25.7909   37.8729   24.0678 C   0  0  0  0  0
  -23.4631   37.3976   24.6846 C   0  0  0  0  0
  -22.0654   37.9366   25.0780 C   0  0  0  0  0
  -20.9524   36.8992   24.9364 C   0  0  0  0  0
  -20.6332   36.4392   26.3523 C   0  0  0  0  0
  -21.7293   37.0320   27.2117 C   0  0  0  0  0
  -24.0130   40.3018   26.4562 N   0  0  0  0  0
  -24.4629   38.3310   24.4417 N   0  0  0  0  0
  -22.0967   38.2755   26.5251 N   0  0  0  0  0
  6  2  1  0  0  0
  7  6  1  0  0  0
  7  8  1  0  0  0
  7 25  1  0  0  0
  8  9  1  0  0  0
  9 14  1  0  0  0
 10 11  1  0  0  0
 12  3  1  0  0  0
 12 13  1  0  0  0
 16 15  1  0  0  0
 16 17  1  0  0  0
 16 26  1  0  0  0
 17 18  1  0  0  0
 18 19  1  0  0  0
 19 26  1  0  0  0
 21 20  1  0  0  0
 21 22  1  0  0  0
 21 27  1  0  0  0
 22 23  1  0  0  0
 23 24  1  0  0  0
 24 27  1  0  0  0
 25 15  1  0  0  0
 26 20  1  0  0  0
  6  1  2  0  0  0
  9 10  2  0  0  0
 11 12  2  0  0  0
 13 14  2  0  0  0
 15  4  2  0  0  0
 20  5  2  0  0  0
M  END
> <rmsd>
0.579501331

$$$$
PPY.sdf


 27 29  0  0  0  0  0  0  0  0999 V2000
  -23.5252   40.4944   31.9640 O   0  0  0  0  0
  -25.0965   42.0499   31.6558 O   0  0  0  0  0
  -30.5031   40.6136   29.7067 O   0  0  0  0  0
  -22.2725   43.2093   29.0076 O   0  0  0  0  0
  -21.4510   40.5472   26.6767 O   0  0  0  0  0
  -24.1815   41.1785   31.1897 C   0  0  0  0  0
  -24.0911   41.1417   29.6667 C   0  0  0  0  0
  -24.9052   39.9661   29.1148 C   0  0  0  0  0
  -26.3986   40.1376   29.2580 C   0  0  0  0  0
  -27.1133   39.3930   30.2069 C   0  0  0  0  0
  -28.4915   39.5639   30.3445 C   0  0  0  0  0
  -29.1570   40.4774   29.5368 C   0  0  0  0  0
  -28.4671   41.2248   28.5884 C   0  0  0  0  0
  -27.0881   41.0535   28.4496 C   0  0  0  0  0
  -21.8641   42.0510   29.0329 C   0  0  0  0  0
  -20.3678   41.6975   28.9588 C   0  0  0  0  0
  -19.4575   42.7183   28.2917 C   0  0  0  0  0
  -18.1436   41.9452   28.0850 C   0  0  0  0  0
  -18.4598   40.4857   28.4432 C   0  0  0  0  0
  -20.5069   39.9652   27.2120 C   0  0  0  0  0
  -19.9649   38.6285   26.6459 C   0  0  0  0  0
  -18.9813   38.8541   25.4980 C   0  0  0  0  0
  -19.5611   38.0851   24.3236 C   0  0  0  0  0
  -21.0409   38.0410   24.6281 C   0  0  0  0  0
  -22.6766   40.9761   29.3260 N   0  0  0  0  0
  -19.9129   40.4201   28.3997 N   0  0  0  0  0
  -21.0764   37.8242   26.0755 N   0  0  0  0  0
  6  2  1  0  0  0
  7  6  1  0  0  0
  7  8  1  0  0  0
  7 25  1  0  0  0
  8  9  1  0  0  0
  9 14  1  0  0  0
 10 11  1  0  0  0
 12  3  1  0  0  0
 12 13  1  0  0  0
 16 15  1  0  0  0
 16 17  1  0  0  0
 16 26  1  0  0  0
 17 18  1  0  0  0
 18 19  1  0  0  0
 19 26  1  0  0  0
 21 20  1  0  0  0
 21 22  1  0  0  0
 21 27  1  0  0  0
 22 23  1  0  0  0
 23 24  1  0  0  0
 24 27  1  0  0  0
 25 15  1  0  0  0
 26 20  1  0  0  0
  6  1  2  0  0  0
  9 10  2  0  0  0
 11 12  2  0  0  0
 13 14  2  0  0  0
 15  4  2  0  0  0
 20  5  2  0  0  0
M  END
> <rmsd>
0.644655108

$$$$
PPY.sdf


 27 29  0  0  0  0  0  0  0  0999 V2000
  -21.3510   40.9862   27.2099 O   0  0  0  0  0
  -22.1149   42.7280   28.3725 O   0  0  0  0  0
  -29.7018   39.2741   29.1365 O   0  0  0  0  0
  -23.9782   41.9913   24.9272 O   0  0  0  0  0
  -23.6949   36.1859   24.6639 O   0  0  0  0  0
  -22.3100   41.5906   27.6696 C   0  0  0  0  0
  -23.7874   41.1931   27.5938 C   0  0  0  0  0
  -24.1781   40.5235   28.9181 C   0  0  0  0  0
  -25.6516   40.1958   29.0008 C   0  0  0  0  0
  -26.5769   41.1751   29.3895 C   0  0  0  0  0
  -27.9412   40.8795   29.4421 C   0  0  0  0  0
  -28.3791   39.6038   29.1017 C   0  0  0  0  0
  -27.4771   38.6223   28.7108 C   0  0  0  0  0
  -26.1144   38.9167   28.6588 C   0  0  0  0  0
  -24.0703   40.7894   25.1769 C   0  0  0  0  0
  -24.2788   39.7458   24.0583 C   0  0  0  0  0
  -25.5860   40.1140   23.3302 C   0  0  0  0  0
  -26.1762   38.7773   22.9134 C   0  0  0  0  0
  -25.7909   37.8729   24.0678 C   0  0  0  0  0
  -23.4631   37.3976   24.6846 C   0  0  0  0  0
  -22.0654   37.9366   25.0780 C   0  0  0  0  0
  -20.9524   36.8992   24.9364 C   0  0  0  0  0
  -20.6332   36.4392   26.3523 C   0  0  0  0  0
  -21.7293   37.0320   27.2117 C   0  0  0  0  0
  -24.0130   40.3018   26.4562 N   0  0  0  0  0
  -24.4629   38.3310   24.4417 N   0  0  0  0  0
  -22.0967   38.2755   26.5251 N   0  0  0  0  0
  6  2  1  0  0  0
  7  6  1  0  0  0
  7  8  1  0  0  0
  7 25  1  0  0  0
  8  9  1  0  0  0
  9 14  1  0  0  0
 10 11  1  0  0  0
 12  3  1  0  0  0
 12 13  1  0  0  0
 16 15  1  0  0  0
 16 17  1  0  0  0
 16 26  1  0  0  0
 17 18  1  0  0  0
 18 19  1  0  0  0
 19 26  1  0  0  0
 21 20  1  0  0  0
 21 22  1  0  0  0
 21 27  1  0  0  0
 22 23  1  0  0  0
 23 24  1  0  0  0
 24 27  1  0  0  0
 25 15  1  0  0  0
 26 20  1  0  0  0
  6  1  2  0  0  0
  9 10  2  0  0  0
 11 12  2  0  0  0
 13 14  2  0  0  0
 15  4  2  0  0  0
 20  5  2  0  0  0
M  END
> <rmsd>
0.579501331

$$$$
PPY.sdf


 27 29  0  0  0  0  0  0  0  0999 V2000
  -23.5252   40.4944   31.9640 O   0  0  0  0  0
  -25.0965   42.0499   31.6558 O   0  0  0  0  0
  -30.5031   40.6136   29.7067 O   0  0  0  0  0
  -22.2725   43.2093   29.0076 O   0  0  0  0  0
  -21.4510   40.5472   26.6767 O   0  0  0  0  0
  -24.1815   41.1785   31.1897 C   0  0  0  0  0
  -24.0911   41.1417   29.6667 C   0  0  0  0  0
  -24.9052   39.9661   29.1148 C   0  0  0  0  0
  -26.3986   40.1376   29.2580 C   0  0  0  0  0
  -27.1133   39.3930   30.2069 C   0  0  0  0  0
  -28.4915   39.5639   30.3445 C   0  0  0  0  0
  -29.1570   40.4774   29.5368 C   0  0  0  0  0
  -28.4671   41.2248   28.5884 C   0  0  0  0  0
  -27.0881   41.0535   28.4496 C   0  0  0  0  0
  -21.8641   42.0510   29.0329 C   0  0  0  0  0
  -20.3678   41.6975   28.9588 C   0  0  0  0  0
  -19.4575   42.7183   28.2917 C   0  0  0  0  0
  -18.1436   41.9452   28.0850 C   0  0  0  0  0
  -18.4598   40.4857   28.4432 C   0  0  0  0  0
  -20.5069   39.9652   27.2120 C   0  0  0  0  0
  -19.9649   38.6285   26.6459 C   0  0  0  0  0
  -18.9813   38.8541   25.4980 C   0  0  0  0  0
  -19.5611   38.0851   24.3236 C   0  0  0  0  0
  -21.0409   38.0410   24.6281 C   0  0  0  0  0
  -22.6766   40.9761   29.3260 N   0  0  0  0  0
  -19.9129   40.4201   28.3997 N   0  0  0  0  0
  -21.0764   37.8242   26.0755 N   0  0  0  0  0
  6  2  1  0  0  0
  7  6  1  0  0  0
  7  8  1  0  0  0
  7 25  1  0  0  0
  8  9  1  0  0  0
  9 14  1  0  0  0
 10 11  1  0  0  0
 12  3  1  0  0  0
 12 13  1  0  0  0
 16 15  1  0  0  0
 16 17  1  0  0  0
 16 26  1  0  0  0
 17 18  1  0  0  0
 18 19  1  0  0  0
 19 26  1  0  0  0
 21 20  1  0  0  0
 21 22  1  0  0  0
 21 27  1  0  0  0
 22 23  1  0  0  0
 23 24  1  0  0  0
 24 27  1  0  0  0
 25 15  1  0  0  0
 26 20  1  0  0  0
  6  1  2  0  0  0
  9 10  2  0  0  0
 11 12  2  0  0  0
 13 14  2  0  0  0
 15  4  2  0  0  0
 20  5  2  0  0  0
M  END
> <rmsd>
0.644655108

$$$$
PPY.sdf


 27 29  0  0  0  0  0  0  0  0999 V2000
  -21.3510   40.9862   27.2099 O   0  0  0  0  0
  -22.1149   42.7280   28.3725 O   0  0  0  0  0
  -29.7018   39.2741   29.1365 O   0  0  0  0  0
  -23.9782   41.9913   24.9272 O   0  0  0  0  0
  -23.6949   36.1859   24.6639 O   0  0  0  0  0
  -22.3100   41.5906   27.6696 C   0  0  0  0  0
  -23.7874   41.1931   27.5938 C   0  0  0  0  0
  -24.1781   40.5235   28.9181 C   0  0  0  0  0
  -25.6516   40.1958   29.0008 C   0  0  0  0  0
  -26.5769   41.1751   29.3895 C   0  0  0  0  0
  -27.9412   40.8795   29.4421 C   0  0  0  0  0
  -28.3791   39.6038   29.1017 C   0  0  0  0  0
  -27.4771   38.6223   28.7108 C   0  0  0  0  0
  -26.1144   38.9167   28.6588 C   0  0  0  0  0
  -24.0703   40.7894   25.1769 C   0  0  0  0  0
  -24.2788   39.7458   24.0583 C   0  0  0  0  0
  -25.5860   40.1140   23.3302 C   0  0  0  0  0
  -26.1762   38.7773   22.9134 C   0  0  0  0  0
  -25.7909   37.8729   24.0678 C   0  0  0  0  0
  -23.4631   37.3976   24.6846 C   0  0  0  0  0
  -22.0654   37.9366   25.0780 C   0  0  0  0  0
  -20.9524   36.8992   24.9364 C   0  0  0  0  0
  -20.6332   36.4392   26.3523 C   0  0  0  0  0
  -21.7293   37.0320   27.2117 C   0  0  0  0  0
  -24.0130   40.3018   26.4562 N   0  0  0  0  0
  -24.4629   38.3310   24.4417 N   0  0  0  0  0
  -22.0967   38.2755   26.5251 N   0  0  0  0  0
  6  2  1  0  0  0
  7  6  1  0  0  0
  7  8  1  0  0  0
  7 25  1  0  0  0
  8  9  1  0  0  0
  9 14  1  0  0  0
 10 11  1  0  0  0
 12  3  1  0  0  0
 12 13  1  0  0  0
 16 15  1  0  0  0
 16 17  1  0  0  0
 16 26  1  0  0  0
 17 18  1  0  0  0
 18 19  1  0  0  0
 19 26  1  0  0  0
 21 20  1  0  0  0
 21 22  1  0  0  0
 21 27  1  0  0  0
 22 23  1  0  0  0
 23 24  1  0  0  0
 24 27  1  0  0  0
 25 15  1  0  0  0
 26 20  1  0  0  0
  6  1  2  0  0  0
  9 10  2  0  0  0
 11 12  2  0  0  0
 13 14  2  0  0  0
 15  4  2  0  0  0
 20  5  2  0  0  0
M  END
> <rmsd>
0.579501331

$$$$
PPY.sdf


 27 29  0  0  0  0  0  0  0  0999 V2000
  -23.5252   40.4944   31.9640 O   0  0  0  0  0
  -25.0965   42.0499   31.6558 O   0  0  0  0  0
  -30.5031   40.6136   29.7067 O   0  0  0  0  0
  -22.2725   43.2093   29.0076 O   0  0  0  0  0
  -21.4510   40.5472   26.6767 O   0  0  0  0  0
  -24.1815   41.1785   31.1897 C   0  0  0  0  0
  -24.0911   41.1417   29.6667 C   0  0  0  0  0
  -24.9052   39.9661   29.1148 C   0  0  0  0  0
  -26.3986   40.1376   29.2580 C   0  0  0  0  0
  -27.1133   39.3930   30.2069 C   0  0  0  0  0
  -28.4915   39.5639   30.3445 C   0  0  0  0  0
  -29.1570   40.4774   29.5368 C   0  0  0  0  0
  -28.4671   41.2248   28.5884 C   0  0  0  0  0
  -27.0881   41.0535   28.4496 C   0  0  0  0  0
  -21.8641   42.0510   29.0329 C   0  0  0  0  0
  -20.3678   41.6975   28.9588 C   0  0  0  0  0
  -19.4575   42.7183   28.2917 C   0  0  0  0  0
  -18.1436   41.9452   28.0850 C   0  0  0  0  0
  -18.4598   40.4857   28.4432 C   0  0  0  0  0
  -20.5069   39.9652   27.2120 C   0  0  0  0  0
  -19.9649   38.6285   26.6459 C   0  0  0  0  0
  -18.9813   38.8541   25.4980 C   0  0  0  0  0
  -19.5611   38.0851   24.3236 C   0  0  0  0  0
  -21.0409   38.0410   24.6281 C   0  0  0  0  0
  -22.6766   40.9761   29.3260 N   0  0  0  0  0
  -19.9129   40.4201   28.3997 N   0  0  0  0  0
  -21.0764   37.8242   26.0755 N   0  0  0  0  0
  6  2  1  0  0  0
  7  6  1  0  0  0
  7  8  1  0  0  0
  7 25  1  0  0  0
  8  9  1  0  0  0
  9 14  1  0  0  0
 10 11  1  0  0  0
 12  3  1  0  0  0
 12 13  1  0  0  0
 16 15  1  0  0  0
 16 17  1  0  0  0
 16 26  1  0  0  0
 17 18  1  0  0  0
 18 19  1  0  0  0
 19 26  1  0  0  0
 21 20  1  0  0  0
 21 22  1  0  0  0
 21 27  1  0  0  0
 22 23  1  0  0  0
 23 24  1  0  0  0
 24 27  1  0  0  0
 25 15  1  0  0  0
 26 20  1  0  0  0
  6  1  2  0  0  0
  9 10  2  0  0  0
 11 12  2  0  0  0
 13 14  2  0  0  0
 15  4  2  0  0  0
 20  5  2  0  0  0
M  END
> <rmsd>
0.644655108

$$$$
PPY.sdf


 27 29  0  0  0  0  0  0  0  0999 V2000
  -21.3510   40.9862   27.2099 O   0  0  0  0  0
  -22.1149   42.7280   28.3725 O   0  0  0  0  0
  -29.7018   39.2741   29.1365 O   0  0  0  0  0
  -23.9782   41.9913   24.9272 O   0  0  0  0  0
  -23.6949   36.1859   24.6639 O   0  0  0  0  0
  -22.3100   41.5906   27.6696 C   0  0  0  0  0
  -23.7874   41.1931   27.5938 C   0  0  0  0  0
  -24.1781   40.5235   28.9181 C   0  0  0  0  0
  -25.6516   40.1958   29.0008 C   0  0  0  0  0
  -26.5769   41.1751   29.3895 C   0  0  0  0  0
  -27.9412   40.8795   29.4421 C   0  0  0  0  0
  -28.3791   39.6038   29.1017 C   0  0  0  0  0
  -27.4771   38.6223   28.7108 C   0  0  0  0  0
  -26.1144   38.9167   28.6588 C   0  0  0  0  0
  -24.0703   40.7894   25.1769 C   0  0  0  0  0
  -24.2788   39.7458   24.0583 C   0  0  0  0  0
  -25.5860   40.1140   23.3302 C   0  0  0  0  0
  -26.1762   38.7773   22.9134 C   0  0  0  0  0
  -25.7909   37.8729   24.0678 C   0  0  0  0  0
  -23.4631   37.3976   24.6846 C   0  0  0  0  0
  -22.0654   37.9366   25.0780 C   0  0  0  0  0
  -20.9524   36.8992   24.9364 C   0  0  0  0  0
  -20.6332   36.4392   26.3523 C   0  0  0  0  0
  -21.7293   37.0320   27.2117 C   0  0  0  0  0
  -24.0130   40.3018   26.4562 N   0  0  0  0  0
  -24.4629   38.3310   24.4417 N   0  0  0  0  0
  -22.0967   38.2755   26.5251 N   0  0  0  0  0
  6  2  1  0  0  0
  7  6  1  0  0  0
  7  8  1  0  0  0
  7 25  1  0  0  0
  8  9  1  0  0  0
  9 14  1  0  0  0
 10 11  1  0  0  0
 12  3  1  0  0  0
 12 13  1  0  0  0
 16 15  1  0  0  0
 16 17  1  0  0  0
 16 26  1  0  0  0
 17 18  1  0  0  0
 18 19  1  0  0  0
 19 26  1  0  0  0
 21 20  1  0  0  0
 21 22  1  0  0  0
 21 27  1  0  0  0
 22 23  1  0  0  0
 23 24  1  0  0  0
 24 27  1  0  0  0
 25 15  1  0  0  0
 26 20  1  0  0  0
  6  1  2  0  0  0
  9 10  2  0  0  0
 11 12  2  0  0  0
 13 14  2  0  0  0
 15  4  2  0  0  0
 20  5  2  0  0  0
M  END
> <rmsd>
0.579501331

$$$$
PPY.sdf


 27 29  0  0  0  0  0  0  0  0999 V2000
  -23.5252   40.4944   31.9640 O   0  0  0  0  0
  -25.0965   42.0499   31.6558 O   0  0  0  0  0
  -30.5031   40.6136   29.7067 O   0  0  0  0  0
  -22.2725   43.2093   29.0076 O   0  0  0  0  0
  -21.4510   40.5472   26.6767 O   0  0  0  0  0
  -24.1815   41.1785   31.1897 C   0  0  0  0  0
  -24.0911   41.1417   29.6667 C   0  0  0  0  0
  -24.9052   39.9661   29.1148 C   0  0  0  0  0
  -26.3986   40.1376   29.2580 C   0  0  0  0  0
  -27.1133   39.3930   30.2069 C   0  0  0  0  0
  -28.4915   39.5639   30.3445 C   0  0  0  0  0
  -29.1570   40.4774   29.5368 C   0  0  0  0  0
  -28.4671   41.2248   28.5884 C   0  0  0  0  0
  -27.0881   41.0535   28.4496 C   0  0  0  0  0
  -21.8641   42.0510   29.0329 C   0  0  0  0  0
  -20.3678   41.6975   28.9588 C   0  0  0  0  0
  -19.4575   42.7183   28.2917 C   0  0  0  0  0
  -18.1436   41.9452   28.0850 C   0  0  0  0  0
  -18.4598   40.4857   28.4432 C   0  0  0  0  0
  -20.5069   39.9652   27.2120 C   0  0  0  0  0
  -19.9649   38.6285   26.6459 C   0  0  0  0  0
  -18.9813   38.8541   25.4980 C   0  0  0  0  0
  -19.5611   38.0851   24.3236 C   0  0  0  0  0
  -21.0409   38.0410   24.6281 C   0  0  0  0  0
  -22.6766   40.9761   29.3260 N   0  0  0  0  0
  -19.9129   40.4201   28.3997 N   0  0  0  0  0
  -21.0764   37.8242   26.0755 N   0  0  0  0  0
  6  2  1  0  0  0
  7  6  1  0  0  0
  7  8  1  0  0  0
  7 25  1  0  0  0
  8  9  1  0  0  0
  9 14  1  0  0  0
 10 11  1  0  0  0
 12  3  1  0  0  0
 12 13  1  0  0  0
 16 15  1  0  0  0
 16 17  1  0  0  0
 16 26  1  0  0  0
 17 18  1  0  0  0
 18 19  1  0  0  0
 19 26  1  0  0  0
 21 20  1  0  0  0
 21 22  1  0  0  0
 21 27  1  0  0  0
 22 23  1  0  0  0
 23 24  1  0  0  0
 24 27  1  0  0  0
 25 15  1  0  0  0
 26 20  1  0  0  0
  6  1  2  0  0  0
  9 10  2  0  0  0
 11 12  2  0  0  0
 13 14  2  0  0  0
 15  4  2  0  0  0
 20  5  2  0  0  0
M  END
> <rmsd>
0.644655108

$$$$
