PPY.sdf


 27 29  0  0  0  0  0  0  0  0999 V2000
  -22.1664   41.6515   32.8285 O   0  0  0  0  0
  -23.3570   40.2184   34.0583 O   0  0  0  0  0
  -22.0343   34.4455   34.1911 O   0  0  0  0  0
  -26.1382   41.5602   31.4514 O   0  0  0  0  0
  -25.1068   41.0374   28.0079 O   0  0  0  0  0
  -22.9994   40.7559   32.8763 C   0  0  0  0  0
  -23.7068   40.1275   31.6789 C   0  0  0  0  0
  -22.8048   39.0777   31.0202 C   0  0  0  0  0
  -22.6052   37.8350   31.8546 C   0  0  0  0  0
  -21.3809   37.5960   32.4946 C   0  0  0  0  0
  -21.2050   36.4526   33.2751 C   0  0  0  0  0
  -22.2494   35.5478   33.4179 C   0  0  0  0  0
  -23.4712   35.7653   32.7902 C   0  0  0  0  0
  -23.6475   36.9089   32.0083 C   0  0  0  0  0
  -25.2061   41.8596   30.7094 C   0  0  0  0  0
  -25.2170   43.1253   29.8335 C   0  0  0  0  0
  -26.5818   43.6853   29.4601 C   0  0  0  0  0
  -26.2604   44.7019   28.3510 C   0  0  0  0  0
  -24.7757   44.4960   28.0165 C   0  0  0  0  0
  -24.5288   42.0831   27.7095 C   0  0  0  0  0
  -23.7486   42.2151   26.3772 C   0  0  0  0  0
  -24.6710   42.5666   25.2103 C   0  0  0  0  0
  -24.4578   41.4611   24.1909 C   0  0  0  0  0
  -23.9987   40.2916   25.0311 C   0  0  0  0  0
  -23.9904   41.2093   30.7336 N   0  0  0  0  0
  -24.4681   43.1874   28.5739 N   0  0  0  0  0
  -23.1192   40.9173   26.0201 N   0  0  0  0  0
  6  2  1  0  0  0
  7  6  1  0  0  0
  7  8  1  0  0  0
  7 25  1  0  0  0
  8  9  1  0  0  0
  9 14  1  0  0  0
 10 11  1  0  0  0
 12  3  1  0  0  0
 12 13  1  0  0  0
 16 15  1  0  0  0
 16 17  1  0  0  0
 16 26  1  0  0  0
 17 18  1  0  0  0
 18 19  1  0  0  0
 19 26  1  0  0  0
 21 20  1  0  0  0
 21 22  1  0  0  0
 21 27  1  0  0  0
 22 23  1  0  0  0
 23 24  1  0  0  0
 24 27  1  0  0  0
 25 15  1  0  0  0
 26 20  1  0  0  0
  6  1  2  0  0  0
  9 10  2  0  0  0
 11 12  2  0  0  0
 13 14  2  0  0  0
 15  4  2  0  0  0
 20  5  2  0  0  0
M  END
> <rmsd>
0.723321855

$$$$
PPY.sdf


 27 29  0  0  0  0  0  0  0  0999 V2000
  -22.1664   41.6515   32.8285 O   0  0  0  0  0
  -23.3570   40.2184   34.0583 O   0  0  0  0  0
  -22.0343   34.4455   34.1911 O   0  0  0  0  0
  -26.1382   41.5602   31.4514 O   0  0  0  0  0
  -25.1068   41.0374   28.0079 O   0  0  0  0  0
  -22.9994   40.7559   32.8763 C   0  0  0  0  0
  -23.7068   40.1275   31.6789 C   0  0  0  0  0
  -22.8048   39.0777   31.0202 C   0  0  0  0  0
  -22.6052   37.8350   31.8546 C   0  0  0  0  0
  -21.3809   37.5960   32.4946 C   0  0  0  0  0
  -21.2050   36.4526   33.2751 C   0  0  0  0  0
  -22.2494   35.5478   33.4179 C   0  0  0  0  0
  -23.4712   35.7653   32.7902 C   0  0  0  0  0
  -23.6475   36.9089   32.0083 C   0  0  0  0  0
  -25.2061   41.8596   30.7094 C   0  0  0  0  0
  -25.2170   43.1253   29.8335 C   0  0  0  0  0
  -26.5818   43.6853   29.4601 C   0  0  0  0  0
  -26.2604   44.7019   28.3510 C   0  0  0  0  0
  -24.7757   44.4960   28.0165 C   0  0  0  0  0
  -24.5288   42.0831   27.7095 C   0  0  0  0  0
  -23.7486   42.2151   26.3772 C   0  0  0  0  0
  -24.6710   42.5666   25.2103 C   0  0  0  0  0
  -24.4578   41.4611   24.1909 C   0  0  0  0  0
  -23.9987   40.2916   25.0311 C   0  0  0  0  0
  -23.9904   41.2093   30.7336 N   0  0  0  0  0
  -24.4681   43.1874   28.5739 N   0  0  0  0  0
  -23.1192   40.9173   26.0201 N   0  0  0  0  0
  6  2  1  0  0  0
  7  6  1  0  0  0
  7  8  1  0  0  0
  7 25  1  0  0  0
  8  9  1  0  0  0
  9 14  1  0  0  0
 10 11  1  0  0  0
 12  3  1  0  0  0
 12 13  1  0  0  0
 16 15  1  0  0  0
 16 17  1  0  0  0
 16 26  1  0  0  0
 17 18  1  0  0  0
 18 19  1  0  0  0
 19 26  1  0  0  0
 21 20  1  0  0  0
 21 22  1  0  0  0
 21 27  1  0  0  0
 22 23  1  0  0  0
 23 24  1  0  0  0
 24 27  1  0  0  0
 25 15  1  0  0  0
 26 20  1  0  0  0
  6  1  2  0  0  0
  9 10  2  0  0  0
 11 12  2  0  0  0
 13 14  2  0  0  0
 15  4  2  0  0  0
 20  5  2  0  0  0
M  END
> <rmsd>
0.723321855

$$$$
PPY.sdf


 27 29  0  0  0  0  0  0  0  0999 V2000
  -22.1664   41.6515   32.8285 O   0  0  0  0  0
  -23.3570   40.2184   34.0583 O   0  0  0  0  0
  -22.0343   34.4455   34.1911 O   0  0  0  0  0
  -26.1382   41.5602   31.4514 O   0  0  0  0  0
  -25.1068   41.0374   28.0079 O   0  0  0  0  0
  -22.9994   40.7559   32.8763 C   0  0  0  0  0
  -23.7068   40.1275   31.6789 C   0  0  0  0  0
  -22.8048   39.0777   31.0202 C   0  0  0  0  0
  -22.6052   37.8350   31.8546 C   0  0  0  0  0
  -21.3809   37.5960   32.4946 C   0  0  0  0  0
  -21.2050   36.4526   33.2751 C   0  0  0  0  0
  -22.2494   35.5478   33.4179 C   0  0  0  0  0
  -23.4712   35.7653   32.7902 C   0  0  0  0  0
  -23.6475   36.9089   32.0083 C   0  0  0  0  0
  -25.2061   41.8596   30.7094 C   0  0  0  0  0
  -25.2170   43.1253   29.8335 C   0  0  0  0  0
  -26.5818   43.6853   29.4601 C   0  0  0  0  0
  -26.2604   44.7019   28.3510 C   0  0  0  0  0
  -24.7757   44.4960   28.0165 C   0  0  0  0  0
  -24.5288   42.0831   27.7095 C   0  0  0  0  0
  -23.7486   42.2151   26.3772 C   0  0  0  0  0
  -24.6710   42.5666   25.2103 C   0  0  0  0  0
  -24.4578   41.4611   24.1909 C   0  0  0  0  0
  -23.9987   40.2916   25.0311 C   0  0  0  0  0
  -23.9904   41.2093   30.7336 N   0  0  0  0  0
  -24.4681   43.1874   28.5739 N   0  0  0  0  0
  -23.1192   40.9173   26.0201 N   0  0  0  0  0
  6  2  1  0  0  0
  7  6  1  0  0  0
  7  8  1  0  0  0
  7 25  1  0  0  0
  8  9  1  0  0  0
  9 14  1  0  0  0
 10 11  1  0  0  0
 12  3  1  0  0  0
 12 13  1  0  0  0
 16 15  1  0  0  0
 16 17  1  0  0  0
 16 26  1  0  0  0
 17 18  1  0  0  0
 18 19  1  0  0  0
 19 26  1  0  0  0
 21 20  1  0  0  0
 21 22  1  0  0  0
 21 27  1  0  0  0
 22 23  1  0  0  0
 23 24  1  0  0  0
 24 27  1  0  0  0
 25 15  1  0  0  0
 26 20  1  0  0  0
  6  1  2  0  0  0
  9 10  2  0  0  0
 11 12  2  0  0  0
 13 14  2  0  0  0
 15  4  2  0  0  0
 20  5  2  0  0  0
M  END
> <rmsd>
0.723321855

$$$$
PPY.sdf


 27 29  0  0  0  0  0  0  0  0999 V2000
  -22.1664   41.6515   32.8285 O   0  0  0  0  0
  -23.3570   40.2184   34.0583 O   0  0  0  0  0
  -22.0343   34.4455   34.1911 O   0  0  0  0  0
  -26.1382   41.5602   31.4514 O   0  0  0  0  0
  -25.1068   41.0374   28.0079 O   0  0  0  0  0
  -22.9994   40.7559   32.8763 C   0  0  0  0  0
  -23.7068   40.1275   31.6789 C   0  0  0  0  0
  -22.8048   39.0777   31.0202 C   0  0  0  0  0
  -22.6052   37.8350   31.8546 C   0  0  0  0  0
  -21.3809   37.5960   32.4946 C   0  0  0  0  0
  -21.2050   36.4526   33.2751 C   0  0  0  0  0
  -22.2494   35.5478   33.4179 C   0  0  0  0  0
  -23.4712   35.7653   32.7902 C   0  0  0  0  0
  -23.6475   36.9089   32.0083 C   0  0  0  0  0
  -25.2061   41.8596   30.7094 C   0  0  0  0  0
  -25.2170   43.1253   29.8335 C   0  0  0  0  0
  -26.5818   43.6853   29.4601 C   0  0  0  0  0
  -26.2604   44.7019   28.3510 C   0  0  0  0  0
  -24.7757   44.4960   28.0165 C   0  0  0  0  0
  -24.5288   42.0831   27.7095 C   0  0  0  0  0
  -23.7486   42.2151   26.3772 C   0  0  0  0  0
  -24.6710   42.5666   25.2103 C   0  0  0  0  0
  -24.4578   41.4611   24.1909 C   0  0  0  0  0
  -23.9987   40.2916   25.0311 C   0  0  0  0  0
  -23.9904   41.2093   30.7336 N   0  0  0  0  0
  -24.4681   43.1874   28.5739 N   0  0  0  0  0
  -23.1192   40.9173   26.0201 N   0  0  0  0  0
  6  2  1  0  0  0
  7  6  1  0  0  0
  7  8  1  0  0  0
  7 25  1  0  0  0
  8  9  1  0  0  0
  9 14  1  0  0  0
 10 11  1  0  0  0
 12  3  1  0  0  0
 12 13  1  0  0  0
 16 15  1  0  0  0
 16 17  1  0  0  0
 16 26  1  0  0  0
 17 18  1  0  0  0
 18 19  1  0  0  0
 19 26  1  0  0  0
 21 20  1  0  0  0
 21 22  1  0  0  0
 21 27  1  0  0  0
 22 23  1  0  0  0
 23 24  1  0  0  0
 24 27  1  0  0  0
 25 15  1  0  0  0
 26 20  1  0  0  0
  6  1  2  0  0  0
  9 10  2  0  0  0
 11 12  2  0  0  0
 13 14  2  0  0  0
 15  4  2  0  0  0
 20  5  2  0  0  0
M  END
> <rmsd>
0.723321855

$$$$
PPY.sdf


 27 29  0  0  0  0  0  0  0  0999 V2000
  -22.1664   41.6515   32.8285 O   0  0  0  0  0
  -23.3570   40.2184   34.0583 O   0  0  0  0  0
  -22.0343   34.4455   34.1911 O   0  0  0  0  0
  -26.1382   41.5602   31.4514 O   0  0  0  0  0
  -25.1068   41.0374   28.0079 O   0  0  0  0  0
  -22.9994   40.7559   32.8763 C   0  0  0  0  0
  -23.7068   40.1275   31.6789 C   0  0  0  0  0
  -22.8048   39.0777   31.0202 C   0  0  0  0  0
  -22.6052   37.8350   31.8546 C   0  0  0  0  0
  -21.3809   37.5960   32.4946 C   0  0  0  0  0
  -21.2050   36.4526   33.2751 C   0  0  0  0  0
  -22.2494   35.5478   33.4179 C   0  0  0  0  0
  -23.4712   35.7653   32.7902 C   0  0  0  0  0
  -23.6475   36.9089   32.0083 C   0  0  0  0  0
  -25.2061   41.8596   30.7094 C   0  0  0  0  0
  -25.2170   43.1253   29.8335 C   0  0  0  0  0
  -26.5818   43.6853   29.4601 C   0  0  0  0  0
  -26.2604   44.7019   28.3510 C   0  0  0  0  0
  -24.7757   44.4960   28.0165 C   0  0  0  0  0
  -24.5288   42.0831   27.7095 C   0  0  0  0  0
  -23.7486   42.2151   26.3772 C   0  0  0  0  0
  -24.6710   42.5666   25.2103 C   0  0  0  0  0
  -24.4578   41.4611   24.1909 C   0  0  0  0  0
  -23.9987   40.2916   25.0311 C   0  0  0  0  0
  -23.9904   41.2093   30.7336 N   0  0  0  0  0
  -24.4681   43.1874   28.5739 N   0  0  0  0  0
  -23.1192   40.9173   26.0201 N   0  0  0  0  0
  6  2  1  0  0  0
  7  6  1  0  0  0
  7  8  1  0  0  0
  7 25  1  0  0  0
  8  9  1  0  0  0
  9 14  1  0  0  0
 10 11  1  0  0  0
 12  3  1  0  0  0
 12 13  1  0  0  0
 16 15  1  0  0  0
 16 17  1  0  0  0
 16 26  1  0  0  0
 17 18  1  0  0  0
 18 19  1  0  0  0
 19 26  1  0  0  0
 21 20  1  0  0  0
 21 22  1  0  0  0
 21 27  1  0  0  0
 22 23  1  0  0  0
 23 24  1  0  0  0
 24 27  1  0  0  0
 25 15  1  0  0  0
 26 20  1  0  0  0
  6  1  2  0  0  0
  9 10  2  0  0  0
 11 12  2  0  0  0
 13 14  2  0  0  0
 15  4  2  0  0  0
 20  5  2  0  0  0
M  END
> <rmsd>
0.723321855

$$$$
