PPY.sdf


 27 29  0  0  0  0  0  0  0  0999 V2000
  -24.5265   37.5990   27.8756 O   0  0  0  0  0
  -22.4463   38.0114   27.1925 O   0  0  0  0  0
  -29.4318   40.7142   30.7338 O   0  0  0  0  0
  -22.5916   42.3840   28.9783 O   0  0  0  0  0
  -18.3593   39.1472   27.2516 O   0  0  0  0  0
  -23.6272   38.4097   27.7279 C   0  0  0  0  0
  -23.6498   39.8997   28.0947 C   0  0  0  0  0
  -24.8382   40.5962   27.4161 C   0  0  0  0  0
  -26.0675   40.6351   28.2944 C   0  0  0  0  0
  -26.1906   41.6224   29.2842 C   0  0  0  0  0
  -27.3154   41.6632   30.1106 C   0  0  0  0  0
  -28.3168   40.7122   29.9485 C   0  0  0  0  0
  -28.2091   39.7237   28.9780 C   0  0  0  0  0
  -27.0849   39.6829   28.1517 C   0  0  0  0  0
  -21.9061   41.6705   28.2503 C   0  0  0  0  0
  -20.4841   42.0797   27.8116 C   0  0  0  0  0
  -20.5600   43.1181   26.6896 C   0  0  0  0  0
  -20.5235   42.2754   25.4187 C   0  0  0  0  0
  -19.5644   41.1531   25.7787 C   0  0  0  0  0
  -19.0358   39.9743   27.8710 C   0  0  0  0  0
  -19.1272   39.9246   29.4122 C   0  0  0  0  0
  -18.0962   40.8515   30.0511 C   0  0  0  0  0
  -17.0559   39.9117   30.6295 C   0  0  0  0  0
  -17.8713   38.6900   30.9907 C   0  0  0  0  0
  -22.3769   40.5086   27.6896 N   0  0  0  0  0
  -19.7227   40.9729   27.2126 N   0  0  0  0  0
  -18.8211   38.5461   29.8846 N   0  0  0  0  0
  6  2  1  0  0  0
  7  6  1  0  0  0
  7  8  1  0  0  0
  7 25  1  0  0  0
  8  9  1  0  0  0
  9 14  1  0  0  0
 10 11  1  0  0  0
 12  3  1  0  0  0
 12 13  1  0  0  0
 16 15  1  0  0  0
 16 17  1  0  0  0
 16 26  1  0  0  0
 17 18  1  0  0  0
 18 19  1  0  0  0
 19 26  1  0  0  0
 21 20  1  0  0  0
 21 22  1  0  0  0
 21 27  1  0  0  0
 22 23  1  0  0  0
 23 24  1  0  0  0
 24 27  1  0  0  0
 25 15  1  0  0  0
 26 20  1  0  0  0
  6  1  2  0  0  0
  9 10  2  0  0  0
 11 12  2  0  0  0
 13 14  2  0  0  0
 15  4  2  0  0  0
 20  5  2  0  0  0
M  END
> <rmsd>
0.79993546

$$$$
PPY.sdf


 27 29  0  0  0  0  0  0  0  0999 V2000
  -23.3404   43.5947   28.2106 O   0  0  0  0  0
  -25.1561   42.7617   27.2100 O   0  0  0  0  0
  -29.4475   39.5326   29.7001 O   0  0  0  0  0
  -21.8719   38.9964   27.2011 O   0  0  0  0  0
  -18.1425   37.0328   27.6788 O   0  0  0  0  0
  -23.9625   42.6183   27.8127 C   0  0  0  0  0
  -23.4944   41.1721   27.9236 C   0  0  0  0  0
  -23.8956   40.5825   29.2829 C   0  0  0  0  0
  -25.3756   40.3124   29.4106 C   0  0  0  0  0
  -26.1883   41.1344   30.2049 C   0  0  0  0  0
  -27.5587   40.8847   30.3118 C   0  0  0  0  0
  -28.1152   39.8119   29.6232 C   0  0  0  0  0
  -27.3250   38.9865   28.8333 C   0  0  0  0  0
  -25.9562   39.2342   28.7273 C   0  0  0  0  0
  -21.3225   40.0712   27.4227 C   0  0  0  0  0
  -19.7936   40.2844   27.3514 C   0  0  0  0  0
  -19.4276   41.1465   26.1400 C   0  0  0  0  0
  -19.2633   40.1163   25.0264 C   0  0  0  0  0
  -18.6187   38.9361   25.7373 C   0  0  0  0  0
  -18.7703   38.0401   28.0213 C   0  0  0  0  0
  -19.2434   38.2271   29.4845 C   0  0  0  0  0
  -18.3947   39.2540   30.2361 C   0  0  0  0  0
  -17.7766   38.4921   31.3980 C   0  0  0  0  0
  -17.8071   37.0524   30.9379 C   0  0  0  0  0
  -22.0329   41.1984   27.7710 N   0  0  0  0  0
  -19.0609   39.0397   27.1168 N   0  0  0  0  0
  -19.0930   36.9631   30.2496 N   0  0  0  0  0
  6  2  1  0  0  0
  7  6  1  0  0  0
  7  8  1  0  0  0
  7 25  1  0  0  0
  8  9  1  0  0  0
  9 14  1  0  0  0
 10 11  1  0  0  0
 12  3  1  0  0  0
 12 13  1  0  0  0
 16 15  1  0  0  0
 16 17  1  0  0  0
 16 26  1  0  0  0
 17 18  1  0  0  0
 18 19  1  0  0  0
 19 26  1  0  0  0
 21 20  1  0  0  0
 21 22  1  0  0  0
 21 27  1  0  0  0
 22 23  1  0  0  0
 23 24  1  0  0  0
 24 27  1  0  0  0
 25 15  1  0  0  0
 26 20  1  0  0  0
  6  1  2  0  0  0
  9 10  2  0  0  0
 11 12  2  0  0  0
 13 14  2  0  0  0
 15  4  2  0  0  0
 20  5  2  0  0  0
M  END
> <rmsd>
0.902803659

$$$$
PPY.sdf


 27 29  0  0  0  0  0  0  0  0999 V2000
  -22.7146   38.8462   27.5627 O   0  0  0  0  0
  -24.6317   39.5769   26.7239 O   0  0  0  0  0
  -30.6389   39.7983   29.1132 O   0  0  0  0  0
  -22.4465   42.2731   28.6910 O   0  0  0  0  0
  -21.1323   38.6297   30.7728 O   0  0  0  0  0
  -23.7545   39.4698   27.7402 C   0  0  0  0  0
  -24.2207   40.0879   29.0683 C   0  0  0  0  0
  -25.1697   41.2912   28.9196 C   0  0  0  0  0
  -26.6329   40.8996   28.9551 C   0  0  0  0  0
  -27.2435   40.5583   30.1716 C   0  0  0  0  0
  -28.5888   40.1898   30.2084 C   0  0  0  0  0
  -29.3277   40.1637   29.0324 C   0  0  0  0  0
  -28.7432   40.5013   27.8164 C   0  0  0  0  0
  -27.3963   40.8695   27.7799 C   0  0  0  0  0
  -22.1647   41.4182   29.5265 C   0  0  0  0  0
  -20.8057   41.3508   30.2625 C   0  0  0  0  0
  -19.9591   42.6053   30.0406 C   0  0  0  0  0
  -19.1737   42.2804   28.7737 C   0  0  0  0  0
  -18.8717   40.7979   28.9306 C   0  0  0  0  0
  -20.2067   38.9469   30.0174 C   0  0  0  0  0
  -19.2799   37.8924   29.3637 C   0  0  0  0  0
  -19.7024   36.4603   29.6678 C   0  0  0  0  0
  -18.9932   36.1099   30.9699 C   0  0  0  0  0
  -18.0035   37.2394   31.2080 C   0  0  0  0  0
  -23.0289   40.3936   29.8686 N   0  0  0  0  0
  -19.9934   40.2715   29.6924 N   0  0  0  0  0
  -17.9097   37.9630   29.9332 N   0  0  0  0  0
  6  2  1  0  0  0
  7  6  1  0  0  0
  7  8  1  0  0  0
  7 25  1  0  0  0
  8  9  1  0  0  0
  9 14  1  0  0  0
 10 11  1  0  0  0
 12  3  1  0  0  0
 12 13  1  0  0  0
 16 15  1  0  0  0
 16 17  1  0  0  0
 16 26  1  0  0  0
 17 18  1  0  0  0
 18 19  1  0  0  0
 19 26  1  0  0  0
 21 20  1  0  0  0
 21 22  1  0  0  0
 21 27  1  0  0  0
 22 23  1  0  0  0
 23 24  1  0  0  0
 24 27  1  0  0  0
 25 15  1  0  0  0
 26 20  1  0  0  0
  6  1  2  0  0  0
  9 10  2  0  0  0
 11 12  2  0  0  0
 13 14  2  0  0  0
 15  4  2  0  0  0
 20  5  2  0  0  0
M  END
> <rmsd>
0.772215128

$$$$
PPY.sdf


 27 29  0  0  0  0  0  0  0  0999 V2000
  -22.9799   38.0905   27.9448 O   0  0  0  0  0
  -24.3303   38.3150   29.7083 O   0  0  0  0  0
  -29.9697   40.1770   29.7436 O   0  0  0  0  0
  -22.5013   42.9227   28.9190 O   0  0  0  0  0
  -19.4749   40.5348   29.9125 O   0  0  0  0  0
  -23.6029   38.8273   28.6984 C   0  0  0  0  0
  -23.6412   40.3503   28.6218 C   0  0  0  0  0
  -24.7400   40.8131   27.6575 C   0  0  0  0  0
  -26.1384   40.6333   28.1987 C   0  0  0  0  0
  -26.6184   41.4832   29.2055 C   0  0  0  0  0
  -27.9067   41.3169   29.7145 C   0  0  0  0  0
  -28.7174   40.3036   29.2189 C   0  0  0  0  0
  -28.2610   39.4505   28.2194 C   0  0  0  0  0
  -26.9710   39.6163   27.7097 C   0  0  0  0  0
  -21.8126   42.0227   28.4429 C   0  0  0  0  0
  -20.3671   42.2572   27.9653 C   0  0  0  0  0
  -20.3927   42.9757   26.6125 C   0  0  0  0  0
  -19.1345   42.4779   25.9188 C   0  0  0  0  0
  -19.0586   41.0232   26.3522 C   0  0  0  0  0
  -19.1814   40.2302   28.7544 C   0  0  0  0  0
  -18.3263   38.9876   28.4149 C   0  0  0  0  0
  -18.9625   38.0331   27.4045 C   0  0  0  0  0
  -18.7180   36.6300   27.9524 C   0  0  0  0  0
  -17.7477   36.8290   29.0992 C   0  0  0  0  0
  -22.3223   40.7788   28.1497 N   0  0  0  0  0
  -19.6095   41.0199   27.6984 N   0  0  0  0  0
  -18.1409   38.1328   29.6036 N   0  0  0  0  0
  6  2  1  0  0  0
  7  6  1  0  0  0
  7  8  1  0  0  0
  7 25  1  0  0  0
  8  9  1  0  0  0
  9 14  1  0  0  0
 10 11  1  0  0  0
 12  3  1  0  0  0
 12 13  1  0  0  0
 16 15  1  0  0  0
 16 17  1  0  0  0
 16 26  1  0  0  0
 17 18  1  0  0  0
 18 19  1  0  0  0
 19 26  1  0  0  0
 21 20  1  0  0  0
 21 22  1  0  0  0
 21 27  1  0  0  0
 22 23  1  0  0  0
 23 24  1  0  0  0
 24 27  1  0  0  0
 25 15  1  0  0  0
 26 20  1  0  0  0
  6  1  2  0  0  0
  9 10  2  0  0  0
 11 12  2  0  0  0
 13 14  2  0  0  0
 15  4  2  0  0  0
 20  5  2  0  0  0
M  END
> <rmsd>
0.693469763

$$$$
PPY.sdf


 27 29  0  0  0  0  0  0  0  0999 V2000
  -24.5265   37.5990   27.8756 O   0  0  0  0  0
  -22.4463   38.0114   27.1925 O   0  0  0  0  0
  -29.4318   40.7142   30.7338 O   0  0  0  0  0
  -22.5916   42.3840   28.9783 O   0  0  0  0  0
  -18.3593   39.1472   27.2516 O   0  0  0  0  0
  -23.6272   38.4097   27.7279 C   0  0  0  0  0
  -23.6498   39.8997   28.0947 C   0  0  0  0  0
  -24.8382   40.5962   27.4161 C   0  0  0  0  0
  -26.0675   40.6351   28.2944 C   0  0  0  0  0
  -26.1906   41.6224   29.2842 C   0  0  0  0  0
  -27.3154   41.6632   30.1106 C   0  0  0  0  0
  -28.3168   40.7122   29.9485 C   0  0  0  0  0
  -28.2091   39.7237   28.9780 C   0  0  0  0  0
  -27.0849   39.6829   28.1517 C   0  0  0  0  0
  -21.9061   41.6705   28.2503 C   0  0  0  0  0
  -20.4841   42.0797   27.8116 C   0  0  0  0  0
  -20.5600   43.1181   26.6896 C   0  0  0  0  0
  -20.5235   42.2754   25.4187 C   0  0  0  0  0
  -19.5644   41.1531   25.7787 C   0  0  0  0  0
  -19.0358   39.9743   27.8710 C   0  0  0  0  0
  -19.1272   39.9246   29.4122 C   0  0  0  0  0
  -18.0962   40.8515   30.0511 C   0  0  0  0  0
  -17.0559   39.9117   30.6295 C   0  0  0  0  0
  -17.8713   38.6900   30.9907 C   0  0  0  0  0
  -22.3769   40.5086   27.6896 N   0  0  0  0  0
  -19.7227   40.9729   27.2126 N   0  0  0  0  0
  -18.8211   38.5461   29.8846 N   0  0  0  0  0
  6  2  1  0  0  0
  7  6  1  0  0  0
  7  8  1  0  0  0
  7 25  1  0  0  0
  8  9  1  0  0  0
  9 14  1  0  0  0
 10 11  1  0  0  0
 12  3  1  0  0  0
 12 13  1  0  0  0
 16 15  1  0  0  0
 16 17  1  0  0  0
 16 26  1  0  0  0
 17 18  1  0  0  0
 18 19  1  0  0  0
 19 26  1  0  0  0
 21 20  1  0  0  0
 21 22  1  0  0  0
 21 27  1  0  0  0
 22 23  1  0  0  0
 23 24  1  0  0  0
 24 27  1  0  0  0
 25 15  1  0  0  0
 26 20  1  0  0  0
  6  1  2  0  0  0
  9 10  2  0  0  0
 11 12  2  0  0  0
 13 14  2  0  0  0
 15  4  2  0  0  0
 20  5  2  0  0  0
M  END
> <rmsd>
0.79993546

$$$$
PPY.sdf


 27 29  0  0  0  0  0  0  0  0999 V2000
  -23.3404   43.5947   28.2106 O   0  0  0  0  0
  -25.1561   42.7617   27.2100 O   0  0  0  0  0
  -29.4475   39.5326   29.7001 O   0  0  0  0  0
  -21.8719   38.9964   27.2011 O   0  0  0  0  0
  -18.1425   37.0328   27.6788 O   0  0  0  0  0
  -23.9625   42.6183   27.8127 C   0  0  0  0  0
  -23.4944   41.1721   27.9236 C   0  0  0  0  0
  -23.8956   40.5825   29.2829 C   0  0  0  0  0
  -25.3756   40.3124   29.4106 C   0  0  0  0  0
  -26.1883   41.1344   30.2049 C   0  0  0  0  0
  -27.5587   40.8847   30.3118 C   0  0  0  0  0
  -28.1152   39.8119   29.6232 C   0  0  0  0  0
  -27.3250   38.9865   28.8333 C   0  0  0  0  0
  -25.9562   39.2342   28.7273 C   0  0  0  0  0
  -21.3225   40.0712   27.4227 C   0  0  0  0  0
  -19.7936   40.2844   27.3514 C   0  0  0  0  0
  -19.4276   41.1465   26.1400 C   0  0  0  0  0
  -19.2633   40.1163   25.0264 C   0  0  0  0  0
  -18.6187   38.9361   25.7373 C   0  0  0  0  0
  -18.7703   38.0401   28.0213 C   0  0  0  0  0
  -19.2434   38.2271   29.4845 C   0  0  0  0  0
  -18.3947   39.2540   30.2361 C   0  0  0  0  0
  -17.7766   38.4921   31.3980 C   0  0  0  0  0
  -17.8071   37.0524   30.9379 C   0  0  0  0  0
  -22.0329   41.1984   27.7710 N   0  0  0  0  0
  -19.0609   39.0397   27.1168 N   0  0  0  0  0
  -19.0930   36.9631   30.2496 N   0  0  0  0  0
  6  2  1  0  0  0
  7  6  1  0  0  0
  7  8  1  0  0  0
  7 25  1  0  0  0
  8  9  1  0  0  0
  9 14  1  0  0  0
 10 11  1  0  0  0
 12  3  1  0  0  0
 12 13  1  0  0  0
 16 15  1  0  0  0
 16 17  1  0  0  0
 16 26  1  0  0  0
 17 18  1  0  0  0
 18 19  1  0  0  0
 19 26  1  0  0  0
 21 20  1  0  0  0
 21 22  1  0  0  0
 21 27  1  0  0  0
 22 23  1  0  0  0
 23 24  1  0  0  0
 24 27  1  0  0  0
 25 15  1  0  0  0
 26 20  1  0  0  0
  6  1  2  0  0  0
  9 10  2  0  0  0
 11 12  2  0  0  0
 13 14  2  0  0  0
 15  4  2  0  0  0
 20  5  2  0  0  0
M  END
> <rmsd>
0.902803659

$$$$
PPY.sdf


 27 29  0  0  0  0  0  0  0  0999 V2000
  -22.7146   38.8462   27.5627 O   0  0  0  0  0
  -24.6317   39.5769   26.7239 O   0  0  0  0  0
  -30.6389   39.7983   29.1132 O   0  0  0  0  0
  -22.4465   42.2731   28.6910 O   0  0  0  0  0
  -21.1323   38.6297   30.7728 O   0  0  0  0  0
  -23.7545   39.4698   27.7402 C   0  0  0  0  0
  -24.2207   40.0879   29.0683 C   0  0  0  0  0
  -25.1697   41.2912   28.9196 C   0  0  0  0  0
  -26.6329   40.8996   28.9551 C   0  0  0  0  0
  -27.2435   40.5583   30.1716 C   0  0  0  0  0
  -28.5888   40.1898   30.2084 C   0  0  0  0  0
  -29.3277   40.1637   29.0324 C   0  0  0  0  0
  -28.7432   40.5013   27.8164 C   0  0  0  0  0
  -27.3963   40.8695   27.7799 C   0  0  0  0  0
  -22.1647   41.4182   29.5265 C   0  0  0  0  0
  -20.8057   41.3508   30.2625 C   0  0  0  0  0
  -19.9591   42.6053   30.0406 C   0  0  0  0  0
  -19.1737   42.2804   28.7737 C   0  0  0  0  0
  -18.8717   40.7979   28.9306 C   0  0  0  0  0
  -20.2067   38.9469   30.0174 C   0  0  0  0  0
  -19.2799   37.8924   29.3637 C   0  0  0  0  0
  -19.7024   36.4603   29.6678 C   0  0  0  0  0
  -18.9932   36.1099   30.9699 C   0  0  0  0  0
  -18.0035   37.2394   31.2080 C   0  0  0  0  0
  -23.0289   40.3936   29.8686 N   0  0  0  0  0
  -19.9934   40.2715   29.6924 N   0  0  0  0  0
  -17.9097   37.9630   29.9332 N   0  0  0  0  0
  6  2  1  0  0  0
  7  6  1  0  0  0
  7  8  1  0  0  0
  7 25  1  0  0  0
  8  9  1  0  0  0
  9 14  1  0  0  0
 10 11  1  0  0  0
 12  3  1  0  0  0
 12 13  1  0  0  0
 16 15  1  0  0  0
 16 17  1  0  0  0
 16 26  1  0  0  0
 17 18  1  0  0  0
 18 19  1  0  0  0
 19 26  1  0  0  0
 21 20  1  0  0  0
 21 22  1  0  0  0
 21 27  1  0  0  0
 22 23  1  0  0  0
 23 24  1  0  0  0
 24 27  1  0  0  0
 25 15  1  0  0  0
 26 20  1  0  0  0
  6  1  2  0  0  0
  9 10  2  0  0  0
 11 12  2  0  0  0
 13 14  2  0  0  0
 15  4  2  0  0  0
 20  5  2  0  0  0
M  END
> <rmsd>
0.772215128

$$$$
PPY.sdf


 27 29  0  0  0  0  0  0  0  0999 V2000
  -22.9799   38.0905   27.9448 O   0  0  0  0  0
  -24.3303   38.3150   29.7083 O   0  0  0  0  0
  -29.9697   40.1770   29.7436 O   0  0  0  0  0
  -22.5013   42.9227   28.9190 O   0  0  0  0  0
  -19.4749   40.5348   29.9125 O   0  0  0  0  0
  -23.6029   38.8273   28.6984 C   0  0  0  0  0
  -23.6412   40.3503   28.6218 C   0  0  0  0  0
  -24.7400   40.8131   27.6575 C   0  0  0  0  0
  -26.1384   40.6333   28.1987 C   0  0  0  0  0
  -26.6184   41.4832   29.2055 C   0  0  0  0  0
  -27.9067   41.3169   29.7145 C   0  0  0  0  0
  -28.7174   40.3036   29.2189 C   0  0  0  0  0
  -28.2610   39.4505   28.2194 C   0  0  0  0  0
  -26.9710   39.6163   27.7097 C   0  0  0  0  0
  -21.8126   42.0227   28.4429 C   0  0  0  0  0
  -20.3671   42.2572   27.9653 C   0  0  0  0  0
  -20.3927   42.9757   26.6125 C   0  0  0  0  0
  -19.1345   42.4779   25.9188 C   0  0  0  0  0
  -19.0586   41.0232   26.3522 C   0  0  0  0  0
  -19.1814   40.2302   28.7544 C   0  0  0  0  0
  -18.3263   38.9876   28.4149 C   0  0  0  0  0
  -18.9625   38.0331   27.4045 C   0  0  0  0  0
  -18.7180   36.6300   27.9524 C   0  0  0  0  0
  -17.7477   36.8290   29.0992 C   0  0  0  0  0
  -22.3223   40.7788   28.1497 N   0  0  0  0  0
  -19.6095   41.0199   27.6984 N   0  0  0  0  0
  -18.1409   38.1328   29.6036 N   0  0  0  0  0
  6  2  1  0  0  0
  7  6  1  0  0  0
  7  8  1  0  0  0
  7 25  1  0  0  0
  8  9  1  0  0  0
  9 14  1  0  0  0
 10 11  1  0  0  0
 12  3  1  0  0  0
 12 13  1  0  0  0
 16 15  1  0  0  0
 16 17  1  0  0  0
 16 26  1  0  0  0
 17 18  1  0  0  0
 18 19  1  0  0  0
 19 26  1  0  0  0
 21 20  1  0  0  0
 21 22  1  0  0  0
 21 27  1  0  0  0
 22 23  1  0  0  0
 23 24  1  0  0  0
 24 27  1  0  0  0
 25 15  1  0  0  0
 26 20  1  0  0  0
  6  1  2  0  0  0
  9 10  2  0  0  0
 11 12  2  0  0  0
 13 14  2  0  0  0
 15  4  2  0  0  0
 20  5  2  0  0  0
M  END
> <rmsd>
0.693469763

$$$$
PPY.sdf


 27 29  0  0  0  0  0  0  0  0999 V2000
  -24.5265   37.5990   27.8756 O   0  0  0  0  0
  -22.4463   38.0114   27.1925 O   0  0  0  0  0
  -29.4318   40.7142   30.7338 O   0  0  0  0  0
  -22.5916   42.3840   28.9783 O   0  0  0  0  0
  -18.3593   39.1472   27.2516 O   0  0  0  0  0
  -23.6272   38.4097   27.7279 C   0  0  0  0  0
  -23.6498   39.8997   28.0947 C   0  0  0  0  0
  -24.8382   40.5962   27.4161 C   0  0  0  0  0
  -26.0675   40.6351   28.2944 C   0  0  0  0  0
  -26.1906   41.6224   29.2842 C   0  0  0  0  0
  -27.3154   41.6632   30.1106 C   0  0  0  0  0
  -28.3168   40.7122   29.9485 C   0  0  0  0  0
  -28.2091   39.7237   28.9780 C   0  0  0  0  0
  -27.0849   39.6829   28.1517 C   0  0  0  0  0
  -21.9061   41.6705   28.2503 C   0  0  0  0  0
  -20.4841   42.0797   27.8116 C   0  0  0  0  0
  -20.5600   43.1181   26.6896 C   0  0  0  0  0
  -20.5235   42.2754   25.4187 C   0  0  0  0  0
  -19.5644   41.1531   25.7787 C   0  0  0  0  0
  -19.0358   39.9743   27.8710 C   0  0  0  0  0
  -19.1272   39.9246   29.4122 C   0  0  0  0  0
  -18.0962   40.8515   30.0511 C   0  0  0  0  0
  -17.0559   39.9117   30.6295 C   0  0  0  0  0
  -17.8713   38.6900   30.9907 C   0  0  0  0  0
  -22.3769   40.5086   27.6896 N   0  0  0  0  0
  -19.7227   40.9729   27.2126 N   0  0  0  0  0
  -18.8211   38.5461   29.8846 N   0  0  0  0  0
  6  2  1  0  0  0
  7  6  1  0  0  0
  7  8  1  0  0  0
  7 25  1  0  0  0
  8  9  1  0  0  0
  9 14  1  0  0  0
 10 11  1  0  0  0
 12  3  1  0  0  0
 12 13  1  0  0  0
 16 15  1  0  0  0
 16 17  1  0  0  0
 16 26  1  0  0  0
 17 18  1  0  0  0
 18 19  1  0  0  0
 19 26  1  0  0  0
 21 20  1  0  0  0
 21 22  1  0  0  0
 21 27  1  0  0  0
 22 23  1  0  0  0
 23 24  1  0  0  0
 24 27  1  0  0  0
 25 15  1  0  0  0
 26 20  1  0  0  0
  6  1  2  0  0  0
  9 10  2  0  0  0
 11 12  2  0  0  0
 13 14  2  0  0  0
 15  4  2  0  0  0
 20  5  2  0  0  0
M  END
> <rmsd>
0.79993546

$$$$
PPY.sdf


 27 29  0  0  0  0  0  0  0  0999 V2000
  -23.3404   43.5947   28.2106 O   0  0  0  0  0
  -25.1561   42.7617   27.2100 O   0  0  0  0  0
  -29.4475   39.5326   29.7001 O   0  0  0  0  0
  -21.8719   38.9964   27.2011 O   0  0  0  0  0
  -18.1425   37.0328   27.6788 O   0  0  0  0  0
  -23.9625   42.6183   27.8127 C   0  0  0  0  0
  -23.4944   41.1721   27.9236 C   0  0  0  0  0
  -23.8956   40.5825   29.2829 C   0  0  0  0  0
  -25.3756   40.3124   29.4106 C   0  0  0  0  0
  -26.1883   41.1344   30.2049 C   0  0  0  0  0
  -27.5587   40.8847   30.3118 C   0  0  0  0  0
  -28.1152   39.8119   29.6232 C   0  0  0  0  0
  -27.3250   38.9865   28.8333 C   0  0  0  0  0
  -25.9562   39.2342   28.7273 C   0  0  0  0  0
  -21.3225   40.0712   27.4227 C   0  0  0  0  0
  -19.7936   40.2844   27.3514 C   0  0  0  0  0
  -19.4276   41.1465   26.1400 C   0  0  0  0  0
  -19.2633   40.1163   25.0264 C   0  0  0  0  0
  -18.6187   38.9361   25.7373 C   0  0  0  0  0
  -18.7703   38.0401   28.0213 C   0  0  0  0  0
  -19.2434   38.2271   29.4845 C   0  0  0  0  0
  -18.3947   39.2540   30.2361 C   0  0  0  0  0
  -17.7766   38.4921   31.3980 C   0  0  0  0  0
  -17.8071   37.0524   30.9379 C   0  0  0  0  0
  -22.0329   41.1984   27.7710 N   0  0  0  0  0
  -19.0609   39.0397   27.1168 N   0  0  0  0  0
  -19.0930   36.9631   30.2496 N   0  0  0  0  0
  6  2  1  0  0  0
  7  6  1  0  0  0
  7  8  1  0  0  0
  7 25  1  0  0  0
  8  9  1  0  0  0
  9 14  1  0  0  0
 10 11  1  0  0  0
 12  3  1  0  0  0
 12 13  1  0  0  0
 16 15  1  0  0  0
 16 17  1  0  0  0
 16 26  1  0  0  0
 17 18  1  0  0  0
 18 19  1  0  0  0
 19 26  1  0  0  0
 21 20  1  0  0  0
 21 22  1  0  0  0
 21 27  1  0  0  0
 22 23  1  0  0  0
 23 24  1  0  0  0
 24 27  1  0  0  0
 25 15  1  0  0  0
 26 20  1  0  0  0
  6  1  2  0  0  0
  9 10  2  0  0  0
 11 12  2  0  0  0
 13 14  2  0  0  0
 15  4  2  0  0  0
 20  5  2  0  0  0
M  END
> <rmsd>
0.902803659

$$$$
PPY.sdf


 27 29  0  0  0  0  0  0  0  0999 V2000
  -22.7146   38.8462   27.5627 O   0  0  0  0  0
  -24.6317   39.5769   26.7239 O   0  0  0  0  0
  -30.6389   39.7983   29.1132 O   0  0  0  0  0
  -22.4465   42.2731   28.6910 O   0  0  0  0  0
  -21.1323   38.6297   30.7728 O   0  0  0  0  0
  -23.7545   39.4698   27.7402 C   0  0  0  0  0
  -24.2207   40.0879   29.0683 C   0  0  0  0  0
  -25.1697   41.2912   28.9196 C   0  0  0  0  0
  -26.6329   40.8996   28.9551 C   0  0  0  0  0
  -27.2435   40.5583   30.1716 C   0  0  0  0  0
  -28.5888   40.1898   30.2084 C   0  0  0  0  0
  -29.3277   40.1637   29.0324 C   0  0  0  0  0
  -28.7432   40.5013   27.8164 C   0  0  0  0  0
  -27.3963   40.8695   27.7799 C   0  0  0  0  0
  -22.1647   41.4182   29.5265 C   0  0  0  0  0
  -20.8057   41.3508   30.2625 C   0  0  0  0  0
  -19.9591   42.6053   30.0406 C   0  0  0  0  0
  -19.1737   42.2804   28.7737 C   0  0  0  0  0
  -18.8717   40.7979   28.9306 C   0  0  0  0  0
  -20.2067   38.9469   30.0174 C   0  0  0  0  0
  -19.2799   37.8924   29.3637 C   0  0  0  0  0
  -19.7024   36.4603   29.6678 C   0  0  0  0  0
  -18.9932   36.1099   30.9699 C   0  0  0  0  0
  -18.0035   37.2394   31.2080 C   0  0  0  0  0
  -23.0289   40.3936   29.8686 N   0  0  0  0  0
  -19.9934   40.2715   29.6924 N   0  0  0  0  0
  -17.9097   37.9630   29.9332 N   0  0  0  0  0
  6  2  1  0  0  0
  7  6  1  0  0  0
  7  8  1  0  0  0
  7 25  1  0  0  0
  8  9  1  0  0  0
  9 14  1  0  0  0
 10 11  1  0  0  0
 12  3  1  0  0  0
 12 13  1  0  0  0
 16 15  1  0  0  0
 16 17  1  0  0  0
 16 26  1  0  0  0
 17 18  1  0  0  0
 18 19  1  0  0  0
 19 26  1  0  0  0
 21 20  1  0  0  0
 21 22  1  0  0  0
 21 27  1  0  0  0
 22 23  1  0  0  0
 23 24  1  0  0  0
 24 27  1  0  0  0
 25 15  1  0  0  0
 26 20  1  0  0  0
  6  1  2  0  0  0
  9 10  2  0  0  0
 11 12  2  0  0  0
 13 14  2  0  0  0
 15  4  2  0  0  0
 20  5  2  0  0  0
M  END
> <rmsd>
0.772215128

$$$$
PPY.sdf


 27 29  0  0  0  0  0  0  0  0999 V2000
  -22.9799   38.0905   27.9448 O   0  0  0  0  0
  -24.3303   38.3150   29.7083 O   0  0  0  0  0
  -29.9697   40.1770   29.7436 O   0  0  0  0  0
  -22.5013   42.9227   28.9190 O   0  0  0  0  0
  -19.4749   40.5348   29.9125 O   0  0  0  0  0
  -23.6029   38.8273   28.6984 C   0  0  0  0  0
  -23.6412   40.3503   28.6218 C   0  0  0  0  0
  -24.7400   40.8131   27.6575 C   0  0  0  0  0
  -26.1384   40.6333   28.1987 C   0  0  0  0  0
  -26.6184   41.4832   29.2055 C   0  0  0  0  0
  -27.9067   41.3169   29.7145 C   0  0  0  0  0
  -28.7174   40.3036   29.2189 C   0  0  0  0  0
  -28.2610   39.4505   28.2194 C   0  0  0  0  0
  -26.9710   39.6163   27.7097 C   0  0  0  0  0
  -21.8126   42.0227   28.4429 C   0  0  0  0  0
  -20.3671   42.2572   27.9653 C   0  0  0  0  0
  -20.3927   42.9757   26.6125 C   0  0  0  0  0
  -19.1345   42.4779   25.9188 C   0  0  0  0  0
  -19.0586   41.0232   26.3522 C   0  0  0  0  0
  -19.1814   40.2302   28.7544 C   0  0  0  0  0
  -18.3263   38.9876   28.4149 C   0  0  0  0  0
  -18.9625   38.0331   27.4045 C   0  0  0  0  0
  -18.7180   36.6300   27.9524 C   0  0  0  0  0
  -17.7477   36.8290   29.0992 C   0  0  0  0  0
  -22.3223   40.7788   28.1497 N   0  0  0  0  0
  -19.6095   41.0199   27.6984 N   0  0  0  0  0
  -18.1409   38.1328   29.6036 N   0  0  0  0  0
  6  2  1  0  0  0
  7  6  1  0  0  0
  7  8  1  0  0  0
  7 25  1  0  0  0
  8  9  1  0  0  0
  9 14  1  0  0  0
 10 11  1  0  0  0
 12  3  1  0  0  0
 12 13  1  0  0  0
 16 15  1  0  0  0
 16 17  1  0  0  0
 16 26  1  0  0  0
 17 18  1  0  0  0
 18 19  1  0  0  0
 19 26  1  0  0  0
 21 20  1  0  0  0
 21 22  1  0  0  0
 21 27  1  0  0  0
 22 23  1  0  0  0
 23 24  1  0  0  0
 24 27  1  0  0  0
 25 15  1  0  0  0
 26 20  1  0  0  0
  6  1  2  0  0  0
  9 10  2  0  0  0
 11 12  2  0  0  0
 13 14  2  0  0  0
 15  4  2  0  0  0
 20  5  2  0  0  0
M  END
> <rmsd>
0.693469763

$$$$
PPY.sdf


 27 29  0  0  0  0  0  0  0  0999 V2000
  -24.5265   37.5990   27.8756 O   0  0  0  0  0
  -22.4463   38.0114   27.1925 O   0  0  0  0  0
  -29.4318   40.7142   30.7338 O   0  0  0  0  0
  -22.5916   42.3840   28.9783 O   0  0  0  0  0
  -18.3593   39.1472   27.2516 O   0  0  0  0  0
  -23.6272   38.4097   27.7279 C   0  0  0  0  0
  -23.6498   39.8997   28.0947 C   0  0  0  0  0
  -24.8382   40.5962   27.4161 C   0  0  0  0  0
  -26.0675   40.6351   28.2944 C   0  0  0  0  0
  -26.1906   41.6224   29.2842 C   0  0  0  0  0
  -27.3154   41.6632   30.1106 C   0  0  0  0  0
  -28.3168   40.7122   29.9485 C   0  0  0  0  0
  -28.2091   39.7237   28.9780 C   0  0  0  0  0
  -27.0849   39.6829   28.1517 C   0  0  0  0  0
  -21.9061   41.6705   28.2503 C   0  0  0  0  0
  -20.4841   42.0797   27.8116 C   0  0  0  0  0
  -20.5600   43.1181   26.6896 C   0  0  0  0  0
  -20.5235   42.2754   25.4187 C   0  0  0  0  0
  -19.5644   41.1531   25.7787 C   0  0  0  0  0
  -19.0358   39.9743   27.8710 C   0  0  0  0  0
  -19.1272   39.9246   29.4122 C   0  0  0  0  0
  -18.0962   40.8515   30.0511 C   0  0  0  0  0
  -17.0559   39.9117   30.6295 C   0  0  0  0  0
  -17.8713   38.6900   30.9907 C   0  0  0  0  0
  -22.3769   40.5086   27.6896 N   0  0  0  0  0
  -19.7227   40.9729   27.2126 N   0  0  0  0  0
  -18.8211   38.5461   29.8846 N   0  0  0  0  0
  6  2  1  0  0  0
  7  6  1  0  0  0
  7  8  1  0  0  0
  7 25  1  0  0  0
  8  9  1  0  0  0
  9 14  1  0  0  0
 10 11  1  0  0  0
 12  3  1  0  0  0
 12 13  1  0  0  0
 16 15  1  0  0  0
 16 17  1  0  0  0
 16 26  1  0  0  0
 17 18  1  0  0  0
 18 19  1  0  0  0
 19 26  1  0  0  0
 21 20  1  0  0  0
 21 22  1  0  0  0
 21 27  1  0  0  0
 22 23  1  0  0  0
 23 24  1  0  0  0
 24 27  1  0  0  0
 25 15  1  0  0  0
 26 20  1  0  0  0
  6  1  2  0  0  0
  9 10  2  0  0  0
 11 12  2  0  0  0
 13 14  2  0  0  0
 15  4  2  0  0  0
 20  5  2  0  0  0
M  END
> <rmsd>
0.79993546

$$$$
PPY.sdf


 27 29  0  0  0  0  0  0  0  0999 V2000
  -23.3404   43.5947   28.2106 O   0  0  0  0  0
  -25.1561   42.7617   27.2100 O   0  0  0  0  0
  -29.4475   39.5326   29.7001 O   0  0  0  0  0
  -21.8719   38.9964   27.2011 O   0  0  0  0  0
  -18.1425   37.0328   27.6788 O   0  0  0  0  0
  -23.9625   42.6183   27.8127 C   0  0  0  0  0
  -23.4944   41.1721   27.9236 C   0  0  0  0  0
  -23.8956   40.5825   29.2829 C   0  0  0  0  0
  -25.3756   40.3124   29.4106 C   0  0  0  0  0
  -26.1883   41.1344   30.2049 C   0  0  0  0  0
  -27.5587   40.8847   30.3118 C   0  0  0  0  0
  -28.1152   39.8119   29.6232 C   0  0  0  0  0
  -27.3250   38.9865   28.8333 C   0  0  0  0  0
  -25.9562   39.2342   28.7273 C   0  0  0  0  0
  -21.3225   40.0712   27.4227 C   0  0  0  0  0
  -19.7936   40.2844   27.3514 C   0  0  0  0  0
  -19.4276   41.1465   26.1400 C   0  0  0  0  0
  -19.2633   40.1163   25.0264 C   0  0  0  0  0
  -18.6187   38.9361   25.7373 C   0  0  0  0  0
  -18.7703   38.0401   28.0213 C   0  0  0  0  0
  -19.2434   38.2271   29.4845 C   0  0  0  0  0
  -18.3947   39.2540   30.2361 C   0  0  0  0  0
  -17.7766   38.4921   31.3980 C   0  0  0  0  0
  -17.8071   37.0524   30.9379 C   0  0  0  0  0
  -22.0329   41.1984   27.7710 N   0  0  0  0  0
  -19.0609   39.0397   27.1168 N   0  0  0  0  0
  -19.0930   36.9631   30.2496 N   0  0  0  0  0
  6  2  1  0  0  0
  7  6  1  0  0  0
  7  8  1  0  0  0
  7 25  1  0  0  0
  8  9  1  0  0  0
  9 14  1  0  0  0
 10 11  1  0  0  0
 12  3  1  0  0  0
 12 13  1  0  0  0
 16 15  1  0  0  0
 16 17  1  0  0  0
 16 26  1  0  0  0
 17 18  1  0  0  0
 18 19  1  0  0  0
 19 26  1  0  0  0
 21 20  1  0  0  0
 21 22  1  0  0  0
 21 27  1  0  0  0
 22 23  1  0  0  0
 23 24  1  0  0  0
 24 27  1  0  0  0
 25 15  1  0  0  0
 26 20  1  0  0  0
  6  1  2  0  0  0
  9 10  2  0  0  0
 11 12  2  0  0  0
 13 14  2  0  0  0
 15  4  2  0  0  0
 20  5  2  0  0  0
M  END
> <rmsd>
0.902803659

$$$$
PPY.sdf


 27 29  0  0  0  0  0  0  0  0999 V2000
  -22.7146   38.8462   27.5627 O   0  0  0  0  0
  -24.6317   39.5769   26.7239 O   0  0  0  0  0
  -30.6389   39.7983   29.1132 O   0  0  0  0  0
  -22.4465   42.2731   28.6910 O   0  0  0  0  0
  -21.1323   38.6297   30.7728 O   0  0  0  0  0
  -23.7545   39.4698   27.7402 C   0  0  0  0  0
  -24.2207   40.0879   29.0683 C   0  0  0  0  0
  -25.1697   41.2912   28.9196 C   0  0  0  0  0
  -26.6329   40.8996   28.9551 C   0  0  0  0  0
  -27.2435   40.5583   30.1716 C   0  0  0  0  0
  -28.5888   40.1898   30.2084 C   0  0  0  0  0
  -29.3277   40.1637   29.0324 C   0  0  0  0  0
  -28.7432   40.5013   27.8164 C   0  0  0  0  0
  -27.3963   40.8695   27.7799 C   0  0  0  0  0
  -22.1647   41.4182   29.5265 C   0  0  0  0  0
  -20.8057   41.3508   30.2625 C   0  0  0  0  0
  -19.9591   42.6053   30.0406 C   0  0  0  0  0
  -19.1737   42.2804   28.7737 C   0  0  0  0  0
  -18.8717   40.7979   28.9306 C   0  0  0  0  0
  -20.2067   38.9469   30.0174 C   0  0  0  0  0
  -19.2799   37.8924   29.3637 C   0  0  0  0  0
  -19.7024   36.4603   29.6678 C   0  0  0  0  0
  -18.9932   36.1099   30.9699 C   0  0  0  0  0
  -18.0035   37.2394   31.2080 C   0  0  0  0  0
  -23.0289   40.3936   29.8686 N   0  0  0  0  0
  -19.9934   40.2715   29.6924 N   0  0  0  0  0
  -17.9097   37.9630   29.9332 N   0  0  0  0  0
  6  2  1  0  0  0
  7  6  1  0  0  0
  7  8  1  0  0  0
  7 25  1  0  0  0
  8  9  1  0  0  0
  9 14  1  0  0  0
 10 11  1  0  0  0
 12  3  1  0  0  0
 12 13  1  0  0  0
 16 15  1  0  0  0
 16 17  1  0  0  0
 16 26  1  0  0  0
 17 18  1  0  0  0
 18 19  1  0  0  0
 19 26  1  0  0  0
 21 20  1  0  0  0
 21 22  1  0  0  0
 21 27  1  0  0  0
 22 23  1  0  0  0
 23 24  1  0  0  0
 24 27  1  0  0  0
 25 15  1  0  0  0
 26 20  1  0  0  0
  6  1  2  0  0  0
  9 10  2  0  0  0
 11 12  2  0  0  0
 13 14  2  0  0  0
 15  4  2  0  0  0
 20  5  2  0  0  0
M  END
> <rmsd>
0.772215128

$$$$
PPY.sdf


 27 29  0  0  0  0  0  0  0  0999 V2000
  -22.9799   38.0905   27.9448 O   0  0  0  0  0
  -24.3303   38.3150   29.7083 O   0  0  0  0  0
  -29.9697   40.1770   29.7436 O   0  0  0  0  0
  -22.5013   42.9227   28.9190 O   0  0  0  0  0
  -19.4749   40.5348   29.9125 O   0  0  0  0  0
  -23.6029   38.8273   28.6984 C   0  0  0  0  0
  -23.6412   40.3503   28.6218 C   0  0  0  0  0
  -24.7400   40.8131   27.6575 C   0  0  0  0  0
  -26.1384   40.6333   28.1987 C   0  0  0  0  0
  -26.6184   41.4832   29.2055 C   0  0  0  0  0
  -27.9067   41.3169   29.7145 C   0  0  0  0  0
  -28.7174   40.3036   29.2189 C   0  0  0  0  0
  -28.2610   39.4505   28.2194 C   0  0  0  0  0
  -26.9710   39.6163   27.7097 C   0  0  0  0  0
  -21.8126   42.0227   28.4429 C   0  0  0  0  0
  -20.3671   42.2572   27.9653 C   0  0  0  0  0
  -20.3927   42.9757   26.6125 C   0  0  0  0  0
  -19.1345   42.4779   25.9188 C   0  0  0  0  0
  -19.0586   41.0232   26.3522 C   0  0  0  0  0
  -19.1814   40.2302   28.7544 C   0  0  0  0  0
  -18.3263   38.9876   28.4149 C   0  0  0  0  0
  -18.9625   38.0331   27.4045 C   0  0  0  0  0
  -18.7180   36.6300   27.9524 C   0  0  0  0  0
  -17.7477   36.8290   29.0992 C   0  0  0  0  0
  -22.3223   40.7788   28.1497 N   0  0  0  0  0
  -19.6095   41.0199   27.6984 N   0  0  0  0  0
  -18.1409   38.1328   29.6036 N   0  0  0  0  0
  6  2  1  0  0  0
  7  6  1  0  0  0
  7  8  1  0  0  0
  7 25  1  0  0  0
  8  9  1  0  0  0
  9 14  1  0  0  0
 10 11  1  0  0  0
 12  3  1  0  0  0
 12 13  1  0  0  0
 16 15  1  0  0  0
 16 17  1  0  0  0
 16 26  1  0  0  0
 17 18  1  0  0  0
 18 19  1  0  0  0
 19 26  1  0  0  0
 21 20  1  0  0  0
 21 22  1  0  0  0
 21 27  1  0  0  0
 22 23  1  0  0  0
 23 24  1  0  0  0
 24 27  1  0  0  0
 25 15  1  0  0  0
 26 20  1  0  0  0
  6  1  2  0  0  0
  9 10  2  0  0  0
 11 12  2  0  0  0
 13 14  2  0  0  0
 15  4  2  0  0  0
 20  5  2  0  0  0
M  END
> <rmsd>
0.693469763

$$$$
PPY.sdf


 27 29  0  0  0  0  0  0  0  0999 V2000
  -24.5265   37.5990   27.8756 O   0  0  0  0  0
  -22.4463   38.0114   27.1925 O   0  0  0  0  0
  -29.4318   40.7142   30.7338 O   0  0  0  0  0
  -22.5916   42.3840   28.9783 O   0  0  0  0  0
  -18.3593   39.1472   27.2516 O   0  0  0  0  0
  -23.6272   38.4097   27.7279 C   0  0  0  0  0
  -23.6498   39.8997   28.0947 C   0  0  0  0  0
  -24.8382   40.5962   27.4161 C   0  0  0  0  0
  -26.0675   40.6351   28.2944 C   0  0  0  0  0
  -26.1906   41.6224   29.2842 C   0  0  0  0  0
  -27.3154   41.6632   30.1106 C   0  0  0  0  0
  -28.3168   40.7122   29.9485 C   0  0  0  0  0
  -28.2091   39.7237   28.9780 C   0  0  0  0  0
  -27.0849   39.6829   28.1517 C   0  0  0  0  0
  -21.9061   41.6705   28.2503 C   0  0  0  0  0
  -20.4841   42.0797   27.8116 C   0  0  0  0  0
  -20.5600   43.1181   26.6896 C   0  0  0  0  0
  -20.5235   42.2754   25.4187 C   0  0  0  0  0
  -19.5644   41.1531   25.7787 C   0  0  0  0  0
  -19.0358   39.9743   27.8710 C   0  0  0  0  0
  -19.1272   39.9246   29.4122 C   0  0  0  0  0
  -18.0962   40.8515   30.0511 C   0  0  0  0  0
  -17.0559   39.9117   30.6295 C   0  0  0  0  0
  -17.8713   38.6900   30.9907 C   0  0  0  0  0
  -22.3769   40.5086   27.6896 N   0  0  0  0  0
  -19.7227   40.9729   27.2126 N   0  0  0  0  0
  -18.8211   38.5461   29.8846 N   0  0  0  0  0
  6  2  1  0  0  0
  7  6  1  0  0  0
  7  8  1  0  0  0
  7 25  1  0  0  0
  8  9  1  0  0  0
  9 14  1  0  0  0
 10 11  1  0  0  0
 12  3  1  0  0  0
 12 13  1  0  0  0
 16 15  1  0  0  0
 16 17  1  0  0  0
 16 26  1  0  0  0
 17 18  1  0  0  0
 18 19  1  0  0  0
 19 26  1  0  0  0
 21 20  1  0  0  0
 21 22  1  0  0  0
 21 27  1  0  0  0
 22 23  1  0  0  0
 23 24  1  0  0  0
 24 27  1  0  0  0
 25 15  1  0  0  0
 26 20  1  0  0  0
  6  1  2  0  0  0
  9 10  2  0  0  0
 11 12  2  0  0  0
 13 14  2  0  0  0
 15  4  2  0  0  0
 20  5  2  0  0  0
M  END
> <rmsd>
0.79993546

$$$$
